/*---------------------------------------------------------------------------*\
| =========                 |                                                 |
| \\      /  F ield         | OpenFOAM: The Open Source CFD Toolbox           |
|  \\    /   O peration     | Version:  2212                                  |
|   \\  /    A nd           | Website:  www.openfoam.com                      |
|    \\/     M anipulation  |                                                 |
\*---------------------------------------------------------------------------*/
Build  : _c9081d5d-20230220 OPENFOAM=2212 patch=230110 version=2212
Arch   : "LSB;label=32;scalar=64"
Exec   : simpleFoam -parallel
Date   : Apr 28 2023
Time   : 07:27:00
Host   : DESKTOP-CT961AV
PID    : 1061
I/O    : uncollated
Case   : /mnt/d/openfoam/20211010_basketball_flow/20220202_sphere_coff/basketball-002/basketballMesh/007_case_basketball/002_cyclicAMI_run
nProcs : 6
Hosts  :
(
    (DESKTOP-CT961AV 6)
)
Pstream initialized with:
    floatTransfer      : 0
    nProcsSimpleSum    : 0
    commsType          : nonBlocking
    polling iterations : 0
trapFpe: Floating point exception trapping enabled (FOAM_SIGFPE).
fileModificationChecking : Monitoring run-time modified files using timeStampMaster (fileModificationSkew 5, maxFileModificationPolls 20)
allowSystemOperations : Allowing user-supplied system call operations

// * * * * * * * * * * * * * * * * * * * * * * * * * * * * * * * * * * * * * //
Create time

Create mesh for time = 0


SIMPLE: no convergence criteria found. Calculations will run for 1000 steps.

Reading field p

Reading field U

Reading/calculating face flux field phi

AMI: Creating addressing and weights between 393216 source faces and 3456 target faces
AMI: Patch source sum(weights) min:0.997035 max:1 average:0.999695
AMI: Patch target sum(weights) min:1.00043 max:1.00076 average:1.00061
Selecting incompressible transport model Newtonian
Selecting turbulence model type RAS
Selecting RAS turbulence model kOmegaSST
Selecting patchDistMethod meshWave
bounding k, min: 0 max: 0.001 average: 0.001
RAS
{
    RASModel        kOmegaSST;
    turbulence      on;
    printCoeffs     on;
    alphaK1         0.85;
    alphaK2         1;
    alphaOmega1     0.5;
    alphaOmega2     0.856;
    gamma1          0.555556;
    gamma2          0.44;
    beta1           0.075;
    beta2           0.0828;
    betaStar        0.09;
    a1              0.31;
    b1              1;
    c1              10;
    F3              false;
    decayControl    false;
    kInf            0;
    omegaInf        0;
}

No MRF models present

No finite volume options present

Starting time loop

forceCoeffs forceCoeffs(sphereMeshed):
    rho: rhoInf
    Freestream density (rhoInf) set to 1
    Not including porosity effects
    magUInf: 1
    lRef   : 0.25
    Aref   : 0.0490625
    rhoInf : 1
    Selecting all coefficients
    - Drag force: Cd
    - Drag force front: Cd(f)
    - Drag force rear: Cd(r)
    - Lift force: Cl
    - Lift force front: Cl(f)
    - Lift force rear: Cl(r)
    - Pitch moment: CmPitch
    - Roll moment: CmRoll
    - Yaw moment: CmYaw
    - Side force: Cs
    - Side force front: Cs(f)
    - Side force rear: Cs(r)


Time = 1

smoothSolver:  Solving for Ux, Initial residual = 1, Final residual = 0.0979373, No Iterations 13
smoothSolver:  Solving for Uy, Initial residual = 1, Final residual = 0.0912288, No Iterations 13
smoothSolver:  Solving for Uz, Initial residual = 1, Final residual = 0.0945605, No Iterations 13
GAMG:  Solving for p, Initial residual = 1, Final residual = 0.00720663, No Iterations 12
time step continuity errors : sum local = 1.6304e-05, global = 1.79016e-07, cumulative = 1.79016e-07
smoothSolver:  Solving for omega, Initial residual = 0.00187235, Final residual = 0.00015454, No Iterations 3
smoothSolver:  Solving for k, Initial residual = 1, Final residual = 0.0584519, No Iterations 5
ExecutionTime = 40.75 s  ClockTime = 44 s

Time = 2

smoothSolver:  Solving for Ux, Initial residual = 0.0148592, Final residual = 0.00135322, No Iterations 14
smoothSolver:  Solving for Uy, Initial residual = 0.567176, Final residual = 0.0537455, No Iterations 14
smoothSolver:  Solving for Uz, Initial residual = 0.564739, Final residual = 0.0538031, No Iterations 14
GAMG:  Solving for p, Initial residual = 0.479987, Final residual = 0.00247344, No Iterations 10
time step continuity errors : sum local = 0.000133198, global = 3.45312e-07, cumulative = 5.24327e-07
smoothSolver:  Solving for omega, Initial residual = 0.000764919, Final residual = 5.59951e-05, No Iterations 4
smoothSolver:  Solving for k, Initial residual = 0.160855, Final residual = 0.0150829, No Iterations 4
ExecutionTime = 58.22 s  ClockTime = 62 s

Time = 3

smoothSolver:  Solving for Ux, Initial residual = 0.00400703, Final residual = 0.000386376, No Iterations 12
smoothSolver:  Solving for Uy, Initial residual = 0.127507, Final residual = 0.0118599, No Iterations 13
smoothSolver:  Solving for Uz, Initial residual = 0.0815231, Final residual = 0.00770702, No Iterations 13
GAMG:  Solving for p, Initial residual = 0.0115642, Final residual = 9.9841e-05, No Iterations 9
time step continuity errors : sum local = 0.000135819, global = -5.2782e-06, cumulative = -4.75387e-06
smoothSolver:  Solving for omega, Initial residual = 0.00050811, Final residual = 4.33708e-05, No Iterations 4
smoothSolver:  Solving for k, Initial residual = 0.0491506, Final residual = 0.00474565, No Iterations 4
ExecutionTime = 74.14 s  ClockTime = 78 s

Time = 4

smoothSolver:  Solving for Ux, Initial residual = 0.00232733, Final residual = 0.00022735, No Iterations 11
smoothSolver:  Solving for Uy, Initial residual = 0.0699217, Final residual = 0.0068187, No Iterations 11
smoothSolver:  Solving for Uz, Initial residual = 0.0424184, Final residual = 0.00422375, No Iterations 11
GAMG:  Solving for p, Initial residual = 0.00762946, Final residual = 5.68336e-05, No Iterations 7
time step continuity errors : sum local = 7.09345e-05, global = 2.50735e-06, cumulative = -2.24653e-06
smoothSolver:  Solving for omega, Initial residual = 0.000377942, Final residual = 3.33163e-05, No Iterations 4
smoothSolver:  Solving for k, Initial residual = 0.0247933, Final residual = 0.00154182, No Iterations 5
ExecutionTime = 89.3 s  ClockTime = 93 s

Time = 5

smoothSolver:  Solving for Ux, Initial residual = 0.00177001, Final residual = 0.000161709, No Iterations 11
smoothSolver:  Solving for Uy, Initial residual = 0.0575705, Final residual = 0.00545384, No Iterations 11
smoothSolver:  Solving for Uz, Initial residual = 0.031697, Final residual = 0.00302975, No Iterations 11
GAMG:  Solving for p, Initial residual = 0.00500935, Final residual = 3.76058e-05, No Iterations 6
time step continuity errors : sum local = 4.97267e-05, global = -7.96012e-06, cumulative = -1.02066e-05
smoothSolver:  Solving for omega, Initial residual = 0.000317441, Final residual = 2.77023e-05, No Iterations 4
smoothSolver:  Solving for k, Initial residual = 0.0156868, Final residual = 0.00100805, No Iterations 5
ExecutionTime = 104.17 s  ClockTime = 108 s

Time = 6

smoothSolver:  Solving for Ux, Initial residual = 0.00146324, Final residual = 0.000145616, No Iterations 11
smoothSolver:  Solving for Uy, Initial residual = 0.0457613, Final residual = 0.00455081, No Iterations 11
smoothSolver:  Solving for Uz, Initial residual = 0.0230928, Final residual = 0.00230327, No Iterations 11
GAMG:  Solving for p, Initial residual = 0.00459297, Final residual = 3.38712e-05, No Iterations 5
time step continuity errors : sum local = 3.94411e-05, global = -1.09693e-06, cumulative = -1.13036e-05
smoothSolver:  Solving for omega, Initial residual = 0.000283521, Final residual = 2.50059e-05, No Iterations 4
smoothSolver:  Solving for k, Initial residual = 0.0110329, Final residual = 0.000722163, No Iterations 5
ExecutionTime = 119.2 s  ClockTime = 123 s

Time = 7

smoothSolver:  Solving for Ux, Initial residual = 0.00107356, Final residual = 0.0001036, No Iterations 11
smoothSolver:  Solving for Uy, Initial residual = 0.0377324, Final residual = 0.00343138, No Iterations 11
smoothSolver:  Solving for Uz, Initial residual = 0.0180459, Final residual = 0.00166467, No Iterations 11
GAMG:  Solving for p, Initial residual = 0.00389304, Final residual = 3.56126e-05, No Iterations 5
time step continuity errors : sum local = 3.84374e-05, global = -3.80005e-06, cumulative = -1.51036e-05
smoothSolver:  Solving for omega, Initial residual = 0.000252839, Final residual = 2.27537e-05, No Iterations 4
smoothSolver:  Solving for k, Initial residual = 0.00811706, Final residual = 0.000538216, No Iterations 5
ExecutionTime = 134.34 s  ClockTime = 138 s

Time = 8

smoothSolver:  Solving for Ux, Initial residual = 0.000798999, Final residual = 6.89736e-05, No Iterations 12
smoothSolver:  Solving for Uy, Initial residual = 0.0331641, Final residual = 0.00310359, No Iterations 11
smoothSolver:  Solving for Uz, Initial residual = 0.0147964, Final residual = 0.00140888, No Iterations 11
GAMG:  Solving for p, Initial residual = 0.00340406, Final residual = 2.22998e-05, No Iterations 5
time step continuity errors : sum local = 2.25742e-05, global = -1.30995e-06, cumulative = -1.64136e-05
smoothSolver:  Solving for omega, Initial residual = 0.000226236, Final residual = 2.09108e-05, No Iterations 4
smoothSolver:  Solving for k, Initial residual = 0.00620701, Final residual = 0.000416247, No Iterations 5
ExecutionTime = 148.77 s  ClockTime = 152 s

Time = 9

smoothSolver:  Solving for Ux, Initial residual = 0.000621843, Final residual = 5.29841e-05, No Iterations 12
smoothSolver:  Solving for Uy, Initial residual = 0.0304418, Final residual = 0.00280396, No Iterations 11
smoothSolver:  Solving for Uz, Initial residual = 0.0124405, Final residual = 0.00116272, No Iterations 11
GAMG:  Solving for p, Initial residual = 0.00289649, Final residual = 1.89069e-05, No Iterations 5
time step continuity errors : sum local = 1.89291e-05, global = -2.02534e-06, cumulative = -1.84389e-05
smoothSolver:  Solving for omega, Initial residual = 0.000204148, Final residual = 1.94276e-05, No Iterations 4
smoothSolver:  Solving for k, Initial residual = 0.00492771, Final residual = 0.000332815, No Iterations 5
ExecutionTime = 163.71 s  ClockTime = 167 s

Time = 10

smoothSolver:  Solving for Ux, Initial residual = 0.000518096, Final residual = 4.39018e-05, No Iterations 12
smoothSolver:  Solving for Uy, Initial residual = 0.0296056, Final residual = 0.00269392, No Iterations 11
smoothSolver:  Solving for Uz, Initial residual = 0.0107702, Final residual = 0.000993355, No Iterations 11
GAMG:  Solving for p, Initial residual = 0.00236521, Final residual = 1.20316e-05, No Iterations 5
time step continuity errors : sum local = 1.20567e-05, global = 1.70836e-07, cumulative = -1.82681e-05
smoothSolver:  Solving for omega, Initial residual = 0.000185618, Final residual = 1.81747e-05, No Iterations 4
smoothSolver:  Solving for k, Initial residual = 0.00404045, Final residual = 0.000273497, No Iterations 5
ExecutionTime = 177.57 s  ClockTime = 181 s

Time = 11

smoothSolver:  Solving for Ux, Initial residual = 0.000437639, Final residual = 3.79105e-05, No Iterations 12
smoothSolver:  Solving for Uy, Initial residual = 0.0308136, Final residual = 0.00283654, No Iterations 11
smoothSolver:  Solving for Uz, Initial residual = 0.00959476, Final residual = 0.000893384, No Iterations 11
GAMG:  Solving for p, Initial residual = 0.0020584, Final residual = 1.0486e-05, No Iterations 5
time step continuity errors : sum local = 1.06017e-05, global = 4.39685e-07, cumulative = -1.78284e-05
smoothSolver:  Solving for omega, Initial residual = 0.000169654, Final residual = 1.11536e-05, No Iterations 5
smoothSolver:  Solving for k, Initial residual = 0.00340139, Final residual = 0.000230057, No Iterations 5
ExecutionTime = 191.78 s  ClockTime = 195 s

Time = 12

smoothSolver:  Solving for Ux, Initial residual = 0.000362611, Final residual = 3.19173e-05, No Iterations 12
smoothSolver:  Solving for Uy, Initial residual = 0.0357562, Final residual = 0.00320622, No Iterations 11
smoothSolver:  Solving for Uz, Initial residual = 0.00888159, Final residual = 0.000806154, No Iterations 11
GAMG:  Solving for p, Initial residual = 0.00178359, Final residual = 9.99194e-06, No Iterations 5
time step continuity errors : sum local = 1.01752e-05, global = 1.11277e-06, cumulative = -1.67156e-05
smoothSolver:  Solving for omega, Initial residual = 0.000155191, Final residual = 1.04554e-05, No Iterations 5
smoothSolver:  Solving for k, Initial residual = 0.00292381, Final residual = 0.000196924, No Iterations 5
ExecutionTime = 206.24 s  ClockTime = 210 s

Time = 13

smoothSolver:  Solving for Ux, Initial residual = 0.000305384, Final residual = 2.73407e-05, No Iterations 12
smoothSolver:  Solving for Uy, Initial residual = 0.0270094, Final residual = 0.00241328, No Iterations 11
smoothSolver:  Solving for Uz, Initial residual = 0.00845614, Final residual = 0.000769663, No Iterations 11
GAMG:  Solving for p, Initial residual = 0.00161063, Final residual = 8.67758e-06, No Iterations 5
time step continuity errors : sum local = 8.888e-06, global = 8.97818e-07, cumulative = -1.58178e-05
smoothSolver:  Solving for omega, Initial residual = 0.000142612, Final residual = 9.79902e-06, No Iterations 5
smoothSolver:  Solving for k, Initial residual = 0.00255831, Final residual = 0.000171605, No Iterations 5
ExecutionTime = 220.39 s  ClockTime = 224 s

Time = 14

smoothSolver:  Solving for Ux, Initial residual = 0.000263823, Final residual = 2.366e-05, No Iterations 12
smoothSolver:  Solving for Uy, Initial residual = 0.0176162, Final residual = 0.00155954, No Iterations 11
smoothSolver:  Solving for Uz, Initial residual = 0.0083069, Final residual = 0.000754806, No Iterations 11
GAMG:  Solving for p, Initial residual = 0.00145521, Final residual = 7.71902e-06, No Iterations 5
time step continuity errors : sum local = 7.93381e-06, global = 7.00357e-07, cumulative = -1.51175e-05
smoothSolver:  Solving for omega, Initial residual = 0.000131639, Final residual = 9.17474e-06, No Iterations 5
smoothSolver:  Solving for k, Initial residual = 0.00226778, Final residual = 0.000151789, No Iterations 5
ExecutionTime = 234.37 s  ClockTime = 238 s

Time = 15

smoothSolver:  Solving for Ux, Initial residual = 0.000233236, Final residual = 2.08961e-05, No Iterations 12
smoothSolver:  Solving for Uy, Initial residual = 0.0121918, Final residual = 0.00111418, No Iterations 11
smoothSolver:  Solving for Uz, Initial residual = 0.00840608, Final residual = 0.000794206, No Iterations 11
GAMG:  Solving for p, Initial residual = 0.00131926, Final residual = 6.6814e-06, No Iterations 5
time step continuity errors : sum local = 6.88477e-06, global = 4.14267e-07, cumulative = -1.47032e-05
smoothSolver:  Solving for omega, Initial residual = 0.000121771, Final residual = 8.58013e-06, No Iterations 5
smoothSolver:  Solving for k, Initial residual = 0.00203264, Final residual = 0.000136429, No Iterations 5
ExecutionTime = 248.87 s  ClockTime = 252 s

Time = 16

smoothSolver:  Solving for Ux, Initial residual = 0.000206372, Final residual = 1.83664e-05, No Iterations 12
smoothSolver:  Solving for Uy, Initial residual = 0.00905295, Final residual = 0.000833643, No Iterations 11
smoothSolver:  Solving for Uz, Initial residual = 0.00890804, Final residual = 0.000849516, No Iterations 11
GAMG:  Solving for p, Initial residual = 0.0011905, Final residual = 5.95644e-06, No Iterations 5
time step continuity errors : sum local = 6.14839e-06, global = 2.59984e-07, cumulative = -1.44432e-05
smoothSolver:  Solving for omega, Initial residual = 0.000112867, Final residual = 8.02483e-06, No Iterations 5
smoothSolver:  Solving for k, Initial residual = 0.00183962, Final residual = 0.000124903, No Iterations 5
ExecutionTime = 263.17 s  ClockTime = 267 s

Time = 17

smoothSolver:  Solving for Ux, Initial residual = 0.000180382, Final residual = 1.61881e-05, No Iterations 12
smoothSolver:  Solving for Uy, Initial residual = 0.00691101, Final residual = 0.000641679, No Iterations 11
smoothSolver:  Solving for Uz, Initial residual = 0.0093397, Final residual = 0.000896728, No Iterations 11
GAMG:  Solving for p, Initial residual = 0.00106523, Final residual = 5.19341e-06, No Iterations 5
time step continuity errors : sum local = 5.36696e-06, global = 2.09277e-07, cumulative = -1.42339e-05
smoothSolver:  Solving for omega, Initial residual = 0.000104642, Final residual = 7.48854e-06, No Iterations 5
smoothSolver:  Solving for k, Initial residual = 0.00168149, Final residual = 0.000115586, No Iterations 5
ExecutionTime = 277.89 s  ClockTime = 281 s

Time = 18

smoothSolver:  Solving for Ux, Initial residual = 0.000156979, Final residual = 1.43504e-05, No Iterations 12
smoothSolver:  Solving for Uy, Initial residual = 0.00544258, Final residual = 0.00051206, No Iterations 11
smoothSolver:  Solving for Uz, Initial residual = 0.00987553, Final residual = 0.000955422, No Iterations 11
GAMG:  Solving for p, Initial residual = 0.000953563, Final residual = 4.58215e-06, No Iterations 5
time step continuity errors : sum local = 4.73689e-06, global = 2.4731e-07, cumulative = -1.39866e-05
smoothSolver:  Solving for omega, Initial residual = 9.68573e-05, Final residual = 6.96122e-06, No Iterations 5
smoothSolver:  Solving for k, Initial residual = 0.00154964, Final residual = 0.000107253, No Iterations 5
ExecutionTime = 292.61 s  ClockTime = 296 s

Time = 19

smoothSolver:  Solving for Ux, Initial residual = 0.00013749, Final residual = 1.27687e-05, No Iterations 12
smoothSolver:  Solving for Uy, Initial residual = 0.00440434, Final residual = 0.000421099, No Iterations 11
smoothSolver:  Solving for Uz, Initial residual = 0.0109721, Final residual = 0.00106873, No Iterations 11
GAMG:  Solving for p, Initial residual = 0.000852318, Final residual = 4.18095e-06, No Iterations 5
time step continuity errors : sum local = 4.31946e-06, global = 3.02261e-07, cumulative = -1.36844e-05
smoothSolver:  Solving for omega, Initial residual = 8.96313e-05, Final residual = 6.45887e-06, No Iterations 5
smoothSolver:  Solving for k, Initial residual = 0.00143369, Final residual = 9.93602e-05, No Iterations 5
ExecutionTime = 306.8 s  ClockTime = 310 s

Time = 20

smoothSolver:  Solving for Ux, Initial residual = 0.000121279, Final residual = 1.14137e-05, No Iterations 12
smoothSolver:  Solving for Uy, Initial residual = 0.00363123, Final residual = 0.000352334, No Iterations 11
smoothSolver:  Solving for Uz, Initial residual = 0.0132853, Final residual = 0.00130399, No Iterations 11
GAMG:  Solving for p, Initial residual = 0.000771767, Final residual = 3.91845e-06, No Iterations 5
time step continuity errors : sum local = 4.04076e-06, global = 3.7533e-07, cumulative = -1.3309e-05
smoothSolver:  Solving for omega, Initial residual = 8.29272e-05, Final residual = 5.97238e-06, No Iterations 5
smoothSolver:  Solving for k, Initial residual = 0.00132612, Final residual = 9.16186e-05, No Iterations 5
ExecutionTime = 321.01 s  ClockTime = 325 s

Time = 21

smoothSolver:  Solving for Ux, Initial residual = 0.000107072, Final residual = 1.0247e-05, No Iterations 12
smoothSolver:  Solving for Uy, Initial residual = 0.00302633, Final residual = 0.000297225, No Iterations 11
smoothSolver:  Solving for Uz, Initial residual = 0.0135356, Final residual = 0.00133906, No Iterations 11
GAMG:  Solving for p, Initial residual = 0.000705537, Final residual = 3.73533e-06, No Iterations 5
time step continuity errors : sum local = 3.84012e-06, global = 4.75442e-07, cumulative = -1.28336e-05
smoothSolver:  Solving for omega, Initial residual = 7.69201e-05, Final residual = 5.51646e-06, No Iterations 5
smoothSolver:  Solving for k, Initial residual = 0.00122357, Final residual = 8.39916e-05, No Iterations 5
ExecutionTime = 335.12 s  ClockTime = 339 s

Time = 22

smoothSolver:  Solving for Ux, Initial residual = 9.50901e-05, Final residual = 9.25544e-06, No Iterations 12
smoothSolver:  Solving for Uy, Initial residual = 0.00252546, Final residual = 0.000251387, No Iterations 11
smoothSolver:  Solving for Uz, Initial residual = 0.00894052, Final residual = 0.000762207, No Iterations 12
GAMG:  Solving for p, Initial residual = 0.000651371, Final residual = 3.68731e-06, No Iterations 5
time step continuity errors : sum local = 3.77507e-06, global = 6.07473e-07, cumulative = -1.22261e-05
smoothSolver:  Solving for omega, Initial residual = 7.13908e-05, Final residual = 5.1e-06, No Iterations 5
smoothSolver:  Solving for k, Initial residual = 0.00112482, Final residual = 7.65595e-05, No Iterations 5
ExecutionTime = 349.47 s  ClockTime = 353 s

Time = 23

smoothSolver:  Solving for Ux, Initial residual = 8.56115e-05, Final residual = 8.41942e-06, No Iterations 12
smoothSolver:  Solving for Uy, Initial residual = 0.00211354, Final residual = 0.00018151, No Iterations 12
smoothSolver:  Solving for Uz, Initial residual = 0.00666091, Final residual = 0.000579302, No Iterations 12
GAMG:  Solving for p, Initial residual = 0.000601743, Final residual = 3.54444e-06, No Iterations 5
time step continuity errors : sum local = 3.61121e-06, global = 6.63228e-07, cumulative = -1.15629e-05
smoothSolver:  Solving for omega, Initial residual = 6.64213e-05, Final residual = 4.72623e-06, No Iterations 5
smoothSolver:  Solving for k, Initial residual = 0.0010297, Final residual = 6.94332e-05, No Iterations 5
ExecutionTime = 363.78 s  ClockTime = 367 s

Time = 24

smoothSolver:  Solving for Ux, Initial residual = 7.78701e-05, Final residual = 7.72289e-06, No Iterations 12
smoothSolver:  Solving for Uy, Initial residual = 0.00180418, Final residual = 0.000156889, No Iterations 12
smoothSolver:  Solving for Uz, Initial residual = 0.00530542, Final residual = 0.000468463, No Iterations 12
GAMG:  Solving for p, Initial residual = 0.000556147, Final residual = 3.22081e-06, No Iterations 5
time step continuity errors : sum local = 3.26325e-06, global = 6.31909e-07, cumulative = -1.0931e-05
smoothSolver:  Solving for omega, Initial residual = 6.19701e-05, Final residual = 4.37958e-06, No Iterations 5
smoothSolver:  Solving for k, Initial residual = 0.000938628, Final residual = 6.27019e-05, No Iterations 5
ExecutionTime = 378.31 s  ClockTime = 382 s

Time = 25

smoothSolver:  Solving for Ux, Initial residual = 7.08092e-05, Final residual = 6.15531e-06, No Iterations 13
smoothSolver:  Solving for Uy, Initial residual = 0.00157996, Final residual = 0.000138135, No Iterations 12
smoothSolver:  Solving for Uz, Initial residual = 0.0043101, Final residual = 0.00038382, No Iterations 12
GAMG:  Solving for p, Initial residual = 0.000512746, Final residual = 2.97545e-06, No Iterations 5
time step continuity errors : sum local = 2.99598e-06, global = 6.02686e-07, cumulative = -1.03283e-05
smoothSolver:  Solving for omega, Initial residual = 5.77739e-05, Final residual = 4.05886e-06, No Iterations 5
smoothSolver:  Solving for k, Initial residual = 0.000852215, Final residual = 5.64455e-05, No Iterations 5
ExecutionTime = 392.48 s  ClockTime = 396 s

Time = 26

smoothSolver:  Solving for Ux, Initial residual = 6.43857e-05, Final residual = 5.71275e-06, No Iterations 13
smoothSolver:  Solving for Uy, Initial residual = 0.00141333, Final residual = 0.000125234, No Iterations 12
smoothSolver:  Solving for Uz, Initial residual = 0.00352088, Final residual = 0.00031817, No Iterations 12
GAMG:  Solving for p, Initial residual = 0.000476388, Final residual = 2.8574e-06, No Iterations 5
time step continuity errors : sum local = 2.85769e-06, global = 5.1408e-07, cumulative = -9.8142e-06
smoothSolver:  Solving for omega, Initial residual = 5.39498e-05, Final residual = 3.76946e-06, No Iterations 5
smoothSolver:  Solving for k, Initial residual = 0.000770982, Final residual = 5.06904e-05, No Iterations 5
ExecutionTime = 406.75 s  ClockTime = 410 s

Time = 27

smoothSolver:  Solving for Ux, Initial residual = 5.89694e-05, Final residual = 5.33559e-06, No Iterations 13
smoothSolver:  Solving for Uy, Initial residual = 0.00128101, Final residual = 0.000115905, No Iterations 12
smoothSolver:  Solving for Uz, Initial residual = 0.00293757, Final residual = 0.000270619, No Iterations 12
GAMG:  Solving for p, Initial residual = 0.0004462, Final residual = 2.81784e-06, No Iterations 5
time step continuity errors : sum local = 2.79827e-06, global = 5.20689e-07, cumulative = -9.29351e-06
smoothSolver:  Solving for omega, Initial residual = 5.05073e-05, Final residual = 3.50546e-06, No Iterations 5
smoothSolver:  Solving for k, Initial residual = 0.000695513, Final residual = 4.54504e-05, No Iterations 5
ExecutionTime = 422.4 s  ClockTime = 426 s

Time = 28

smoothSolver:  Solving for Ux, Initial residual = 5.48046e-05, Final residual = 4.9972e-06, No Iterations 13
smoothSolver:  Solving for Uy, Initial residual = 0.00116766, Final residual = 0.000108227, No Iterations 12
smoothSolver:  Solving for Uz, Initial residual = 0.00251117, Final residual = 0.000237065, No Iterations 12
GAMG:  Solving for p, Initial residual = 0.000420021, Final residual = 2.87041e-06, No Iterations 5
time step continuity errors : sum local = 2.8299e-06, global = 5.87346e-07, cumulative = -8.70617e-06
smoothSolver:  Solving for omega, Initial residual = 4.72925e-05, Final residual = 3.26202e-06, No Iterations 5
smoothSolver:  Solving for k, Initial residual = 0.00062635, Final residual = 4.07254e-05, No Iterations 5
ExecutionTime = 436.69 s  ClockTime = 440 s

Time = 29

smoothSolver:  Solving for Ux, Initial residual = 5.16135e-05, Final residual = 4.68334e-06, No Iterations 13
smoothSolver:  Solving for Uy, Initial residual = 0.00106854, Final residual = 0.000101429, No Iterations 12
smoothSolver:  Solving for Uz, Initial residual = 0.00218657, Final residual = 0.000211758, No Iterations 12
GAMG:  Solving for p, Initial residual = 0.000399854, Final residual = 2.92808e-06, No Iterations 5
time step continuity errors : sum local = 2.86523e-06, global = 6.18002e-07, cumulative = -8.08816e-06
smoothSolver:  Solving for omega, Initial residual = 4.4338e-05, Final residual = 3.0405e-06, No Iterations 5
smoothSolver:  Solving for k, Initial residual = 0.000563395, Final residual = 3.64687e-05, No Iterations 5
ExecutionTime = 451.03 s  ClockTime = 455 s

Time = 30

smoothSolver:  Solving for Ux, Initial residual = 4.90917e-05, Final residual = 4.40142e-06, No Iterations 13
smoothSolver:  Solving for Uy, Initial residual = 0.00098907, Final residual = 9.6063e-05, No Iterations 12
smoothSolver:  Solving for Uz, Initial residual = 0.00192337, Final residual = 0.000190407, No Iterations 12
GAMG:  Solving for p, Initial residual = 0.00038469, Final residual = 2.94914e-06, No Iterations 5
time step continuity errors : sum local = 2.86349e-06, global = 5.52707e-07, cumulative = -7.53546e-06
smoothSolver:  Solving for omega, Initial residual = 4.1699e-05, Final residual = 2.8452e-06, No Iterations 5
smoothSolver:  Solving for k, Initial residual = 0.000506629, Final residual = 3.26518e-05, No Iterations 5
ExecutionTime = 465.2 s  ClockTime = 469 s

Time = 31

smoothSolver:  Solving for Ux, Initial residual = 4.68308e-05, Final residual = 4.15065e-06, No Iterations 13
smoothSolver:  Solving for Uy, Initial residual = 0.00092198, Final residual = 9.17684e-05, No Iterations 12
smoothSolver:  Solving for Uz, Initial residual = 0.00169524, Final residual = 0.000147767, No Iterations 13
GAMG:  Solving for p, Initial residual = 0.000372466, Final residual = 3.07406e-06, No Iterations 5
time step continuity errors : sum local = 2.96068e-06, global = 4.73174e-07, cumulative = -7.06228e-06
smoothSolver:  Solving for omega, Initial residual = 3.93637e-05, Final residual = 2.67315e-06, No Iterations 5
smoothSolver:  Solving for k, Initial residual = 0.000455819, Final residual = 2.92509e-05, No Iterations 5
ExecutionTime = 479.66 s  ClockTime = 483 s

Time = 32

smoothSolver:  Solving for Ux, Initial residual = 4.4689e-05, Final residual = 3.93305e-06, No Iterations 13
smoothSolver:  Solving for Uy, Initial residual = 0.00086203, Final residual = 7.58358e-05, No Iterations 13
smoothSolver:  Solving for Uz, Initial residual = 0.00150259, Final residual = 0.000133329, No Iterations 13
GAMG:  Solving for p, Initial residual = 0.000364299, Final residual = 3.24445e-06, No Iterations 5
time step continuity errors : sum local = 3.0989e-06, global = 3.81314e-07, cumulative = -6.68097e-06
smoothSolver:  Solving for omega, Initial residual = 3.73005e-05, Final residual = 2.51872e-06, No Iterations 5
smoothSolver:  Solving for k, Initial residual = 0.000410673, Final residual = 2.62414e-05, No Iterations 5
ExecutionTime = 494.19 s  ClockTime = 498 s

Time = 33

smoothSolver:  Solving for Ux, Initial residual = 4.26412e-05, Final residual = 3.73805e-06, No Iterations 13
smoothSolver:  Solving for Uy, Initial residual = 0.000808446, Final residual = 7.23411e-05, No Iterations 13
smoothSolver:  Solving for Uz, Initial residual = 0.00134411, Final residual = 0.000120913, No Iterations 13
GAMG:  Solving for p, Initial residual = 0.000358712, Final residual = 3.4434e-06, No Iterations 5
time step continuity errors : sum local = 3.26083e-06, global = 3.09748e-07, cumulative = -6.37122e-06
smoothSolver:  Solving for omega, Initial residual = 3.54438e-05, Final residual = 2.38156e-06, No Iterations 5
smoothSolver:  Solving for k, Initial residual = 0.00037069, Final residual = 2.35924e-05, No Iterations 5
ExecutionTime = 509.35 s  ClockTime = 513 s

Time = 34

smoothSolver:  Solving for Ux, Initial residual = 4.06957e-05, Final residual = 3.55775e-06, No Iterations 13
smoothSolver:  Solving for Uy, Initial residual = 0.000761478, Final residual = 6.897e-05, No Iterations 13
smoothSolver:  Solving for Uz, Initial residual = 0.00121242, Final residual = 0.000110246, No Iterations 13
GAMG:  Solving for p, Initial residual = 0.000354854, Final residual = 2.29567e-06, No Iterations 6
time step continuity errors : sum local = 2.15449e-06, global = 2.6742e-07, cumulative = -6.1038e-06
smoothSolver:  Solving for omega, Initial residual = 3.37592e-05, Final residual = 2.26135e-06, No Iterations 5
smoothSolver:  Solving for k, Initial residual = 0.000335494, Final residual = 2.12718e-05, No Iterations 5
ExecutionTime = 524.18 s  ClockTime = 528 s

Time = 35

smoothSolver:  Solving for Ux, Initial residual = 3.89389e-05, Final residual = 3.39364e-06, No Iterations 13
smoothSolver:  Solving for Uy, Initial residual = 0.000721088, Final residual = 6.60634e-05, No Iterations 13
smoothSolver:  Solving for Uz, Initial residual = 0.00110666, Final residual = 0.000101551, No Iterations 13
GAMG:  Solving for p, Initial residual = 0.000354853, Final residual = 2.39308e-06, No Iterations 6
time step continuity errors : sum local = 2.2253e-06, global = 2.96686e-07, cumulative = -5.80712e-06
smoothSolver:  Solving for omega, Initial residual = 3.22282e-05, Final residual = 2.15442e-06, No Iterations 5
smoothSolver:  Solving for k, Initial residual = 0.000304603, Final residual = 1.92362e-05, No Iterations 5
ExecutionTime = 539.73 s  ClockTime = 544 s

Time = 36

smoothSolver:  Solving for Ux, Initial residual = 3.73217e-05, Final residual = 3.2491e-06, No Iterations 13
smoothSolver:  Solving for Uy, Initial residual = 0.000684076, Final residual = 6.29652e-05, No Iterations 13
smoothSolver:  Solving for Uz, Initial residual = 0.00101444, Final residual = 9.35066e-05, No Iterations 13
GAMG:  Solving for p, Initial residual = 0.00035604, Final residual = 2.57204e-06, No Iterations 6
time step continuity errors : sum local = 2.36848e-06, global = 3.3434e-07, cumulative = -5.47277e-06
smoothSolver:  Solving for omega, Initial residual = 3.08415e-05, Final residual = 2.06008e-06, No Iterations 5
smoothSolver:  Solving for k, Initial residual = 0.000277439, Final residual = 1.74548e-05, No Iterations 5
ExecutionTime = 554.49 s  ClockTime = 558 s

Time = 37

smoothSolver:  Solving for Ux, Initial residual = 3.59519e-05, Final residual = 3.11971e-06, No Iterations 13
smoothSolver:  Solving for Uy, Initial residual = 0.000652775, Final residual = 6.03147e-05, No Iterations 13
smoothSolver:  Solving for Uz, Initial residual = 0.000937957, Final residual = 8.6854e-05, No Iterations 13
GAMG:  Solving for p, Initial residual = 0.000359101, Final residual = 2.76586e-06, No Iterations 6
time step continuity errors : sum local = 2.52132e-06, global = 3.55833e-07, cumulative = -5.11694e-06
smoothSolver:  Solving for omega, Initial residual = 2.9624e-05, Final residual = 1.97623e-06, No Iterations 5
smoothSolver:  Solving for k, Initial residual = 0.000253641, Final residual = 1.59043e-05, No Iterations 5
ExecutionTime = 569.18 s  ClockTime = 573 s

Time = 38

smoothSolver:  Solving for Ux, Initial residual = 3.47594e-05, Final residual = 3.0027e-06, No Iterations 13
smoothSolver:  Solving for Uy, Initial residual = 0.000624216, Final residual = 5.78313e-05, No Iterations 13
smoothSolver:  Solving for Uz, Initial residual = 0.000871397, Final residual = 8.10667e-05, No Iterations 13
GAMG:  Solving for p, Initial residual = 0.000364365, Final residual = 3.04158e-06, No Iterations 6
time step continuity errors : sum local = 2.74354e-06, global = 3.85835e-07, cumulative = -4.73111e-06
smoothSolver:  Solving for omega, Initial residual = 2.8501e-05, Final residual = 1.90158e-06, No Iterations 5
smoothSolver:  Solving for k, Initial residual = 0.000232847, Final residual = 1.45519e-05, No Iterations 5
ExecutionTime = 583.8 s  ClockTime = 588 s

Time = 39

smoothSolver:  Solving for Ux, Initial residual = 3.36922e-05, Final residual = 2.89337e-06, No Iterations 13
smoothSolver:  Solving for Uy, Initial residual = 0.00060029, Final residual = 5.57717e-05, No Iterations 13
smoothSolver:  Solving for Uz, Initial residual = 0.000816015, Final residual = 7.62972e-05, No Iterations 13
GAMG:  Solving for p, Initial residual = 0.000372734, Final residual = 3.33887e-06, No Iterations 6
time step continuity errors : sum local = 2.97875e-06, global = 4.18529e-07, cumulative = -4.31258e-06
smoothSolver:  Solving for omega, Initial residual = 2.74514e-05, Final residual = 1.83704e-06, No Iterations 5
smoothSolver:  Solving for k, Initial residual = 0.000214626, Final residual = 1.33811e-05, No Iterations 5
ExecutionTime = 598.61 s  ClockTime = 602 s

Time = 40

smoothSolver:  Solving for Ux, Initial residual = 3.27827e-05, Final residual = 3.26456e-06, No Iterations 12
smoothSolver:  Solving for Uy, Initial residual = 0.000580589, Final residual = 5.41254e-05, No Iterations 13
smoothSolver:  Solving for Uz, Initial residual = 0.000768124, Final residual = 7.22723e-05, No Iterations 13
GAMG:  Solving for p, Initial residual = 0.000384097, Final residual = 3.61487e-06, No Iterations 6
time step continuity errors : sum local = 3.18805e-06, global = 4.43469e-07, cumulative = -3.86911e-06
smoothSolver:  Solving for omega, Initial residual = 2.65142e-05, Final residual = 1.7809e-06, No Iterations 5
smoothSolver:  Solving for k, Initial residual = 0.00019869, Final residual = 1.23743e-05, No Iterations 5
ExecutionTime = 613.48 s  ClockTime = 617 s

Time = 41

smoothSolver:  Solving for Ux, Initial residual = 3.19711e-05, Final residual = 3.16498e-06, No Iterations 12
smoothSolver:  Solving for Uy, Initial residual = 0.00056409, Final residual = 5.26036e-05, No Iterations 13
smoothSolver:  Solving for Uz, Initial residual = 0.000725892, Final residual = 6.84728e-05, No Iterations 13
GAMG:  Solving for p, Initial residual = 0.000395524, Final residual = 3.88696e-06, No Iterations 6
time step continuity errors : sum local = 3.3872e-06, global = 4.75222e-07, cumulative = -3.39389e-06
smoothSolver:  Solving for omega, Initial residual = 2.56949e-05, Final residual = 1.73247e-06, No Iterations 5
smoothSolver:  Solving for k, Initial residual = 0.00018506, Final residual = 1.15209e-05, No Iterations 5
ExecutionTime = 628.13 s  ClockTime = 632 s

Time = 42

smoothSolver:  Solving for Ux, Initial residual = 3.11903e-05, Final residual = 3.08095e-06, No Iterations 12
smoothSolver:  Solving for Uy, Initial residual = 0.000551579, Final residual = 5.1574e-05, No Iterations 13
smoothSolver:  Solving for Uz, Initial residual = 0.000691845, Final residual = 6.54835e-05, No Iterations 13
GAMG:  Solving for p, Initial residual = 0.000407911, Final residual = 2.65959e-06, No Iterations 7
time step continuity errors : sum local = 2.28802e-06, global = 3.49814e-07, cumulative = -3.04407e-06
smoothSolver:  Solving for omega, Initial residual = 2.49714e-05, Final residual = 1.6917e-06, No Iterations 5
smoothSolver:  Solving for k, Initial residual = 0.000173592, Final residual = 1.08106e-05, No Iterations 5
ExecutionTime = 643.22 s  ClockTime = 647 s

Time = 43

smoothSolver:  Solving for Ux, Initial residual = 3.05042e-05, Final residual = 3.02623e-06, No Iterations 12
smoothSolver:  Solving for Uy, Initial residual = 0.000543719, Final residual = 5.12223e-05, No Iterations 13
smoothSolver:  Solving for Uz, Initial residual = 0.000666126, Final residual = 6.35008e-05, No Iterations 13
GAMG:  Solving for p, Initial residual = 0.000423058, Final residual = 2.86078e-06, No Iterations 7
time step continuity errors : sum local = 2.42787e-06, global = 3.77028e-07, cumulative = -2.66704e-06
smoothSolver:  Solving for omega, Initial residual = 2.43363e-05, Final residual = 1.65843e-06, No Iterations 5
smoothSolver:  Solving for k, Initial residual = 0.000164054, Final residual = 1.0233e-05, No Iterations 5
ExecutionTime = 658.46 s  ClockTime = 662 s

Time = 44

smoothSolver:  Solving for Ux, Initial residual = 2.991e-05, Final residual = 2.56506e-06, No Iterations 13
smoothSolver:  Solving for Uy, Initial residual = 0.0005361, Final residual = 5.08164e-05, No Iterations 13
smoothSolver:  Solving for Uz, Initial residual = 0.000643025, Final residual = 6.1574e-05, No Iterations 13
GAMG:  Solving for p, Initial residual = 0.000443135, Final residual = 3.36775e-06, No Iterations 7
time step continuity errors : sum local = 2.81702e-06, global = 4.63646e-07, cumulative = -2.2034e-06
smoothSolver:  Solving for omega, Initial residual = 2.37944e-05, Final residual = 1.63202e-06, No Iterations 5
smoothSolver:  Solving for k, Initial residual = 0.000156239, Final residual = 9.77851e-06, No Iterations 5
ExecutionTime = 673.71 s  ClockTime = 678 s

Time = 45

smoothSolver:  Solving for Ux, Initial residual = 2.95974e-05, Final residual = 2.56226e-06, No Iterations 13
smoothSolver:  Solving for Uy, Initial residual = 0.000533661, Final residual = 5.10189e-05, No Iterations 13
smoothSolver:  Solving for Uz, Initial residual = 0.000627932, Final residual = 6.04741e-05, No Iterations 13
GAMG:  Solving for p, Initial residual = 0.000468143, Final residual = 3.72992e-06, No Iterations 7
time step continuity errors : sum local = 3.07185e-06, global = 5.17295e-07, cumulative = -1.6861e-06
smoothSolver:  Solving for omega, Initial residual = 2.33602e-05, Final residual = 1.6105e-06, No Iterations 5
smoothSolver:  Solving for k, Initial residual = 0.000149935, Final residual = 9.42725e-06, No Iterations 5
ExecutionTime = 688.67 s  ClockTime = 693 s

Time = 46

smoothSolver:  Solving for Ux, Initial residual = 2.95638e-05, Final residual = 2.58922e-06, No Iterations 13
smoothSolver:  Solving for Uy, Initial residual = 0.000533525, Final residual = 5.12132e-05, No Iterations 13
smoothSolver:  Solving for Uz, Initial residual = 0.000616857, Final residual = 5.95884e-05, No Iterations 13
GAMG:  Solving for p, Initial residual = 0.000496254, Final residual = 4.01089e-06, No Iterations 7
time step continuity errors : sum local = 3.25119e-06, global = 5.60321e-07, cumulative = -1.12578e-06
smoothSolver:  Solving for omega, Initial residual = 2.30241e-05, Final residual = 1.59161e-06, No Iterations 5
smoothSolver:  Solving for k, Initial residual = 0.000145077, Final residual = 9.16839e-06, No Iterations 5
ExecutionTime = 703.73 s  ClockTime = 708 s

Time = 47

smoothSolver:  Solving for Ux, Initial residual = 2.98372e-05, Final residual = 2.64573e-06, No Iterations 13
smoothSolver:  Solving for Uy, Initial residual = 0.000537456, Final residual = 5.15983e-05, No Iterations 13
smoothSolver:  Solving for Uz, Initial residual = 0.000612486, Final residual = 5.92257e-05, No Iterations 13
GAMG:  Solving for p, Initial residual = 0.000529134, Final residual = 4.23143e-06, No Iterations 7
time step continuity errors : sum local = 3.3748e-06, global = 5.84438e-07, cumulative = -5.41344e-07
smoothSolver:  Solving for omega, Initial residual = 2.27577e-05, Final residual = 1.57252e-06, No Iterations 5
smoothSolver:  Solving for k, Initial residual = 0.000141569, Final residual = 8.97349e-06, No Iterations 5
ExecutionTime = 719.36 s  ClockTime = 723 s

Time = 48

smoothSolver:  Solving for Ux, Initial residual = 3.03127e-05, Final residual = 2.72423e-06, No Iterations 13
smoothSolver:  Solving for Uy, Initial residual = 0.000543944, Final residual = 5.23036e-05, No Iterations 13
smoothSolver:  Solving for Uz, Initial residual = 0.000613119, Final residual = 5.92892e-05, No Iterations 13
GAMG:  Solving for p, Initial residual = 0.00057053, Final residual = 4.44851e-06, No Iterations 7
time step continuity errors : sum local = 3.48963e-06, global = 6.0367e-07, cumulative = 6.23261e-08
smoothSolver:  Solving for omega, Initial residual = 2.25693e-05, Final residual = 1.55278e-06, No Iterations 5
smoothSolver:  Solving for k, Initial residual = 0.000139424, Final residual = 8.82341e-06, No Iterations 5
ExecutionTime = 734.61 s  ClockTime = 739 s

Time = 49

smoothSolver:  Solving for Ux, Initial residual = 3.09027e-05, Final residual = 2.81707e-06, No Iterations 13
smoothSolver:  Solving for Uy, Initial residual = 0.000554407, Final residual = 5.35155e-05, No Iterations 13
smoothSolver:  Solving for Uz, Initial residual = 0.00062121, Final residual = 6.00378e-05, No Iterations 13
GAMG:  Solving for p, Initial residual = 0.000616415, Final residual = 4.63982e-06, No Iterations 7
time step continuity errors : sum local = 3.57956e-06, global = 6.15154e-07, cumulative = 6.77481e-07
smoothSolver:  Solving for omega, Initial residual = 2.24572e-05, Final residual = 1.5341e-06, No Iterations 5
smoothSolver:  Solving for k, Initial residual = 0.000138606, Final residual = 8.71494e-06, No Iterations 5
ExecutionTime = 749.83 s  ClockTime = 754 s

Time = 50

smoothSolver:  Solving for Ux, Initial residual = 3.15301e-05, Final residual = 2.90535e-06, No Iterations 13
smoothSolver:  Solving for Uy, Initial residual = 0.000566829, Final residual = 5.47983e-05, No Iterations 13
smoothSolver:  Solving for Uz, Initial residual = 0.000635456, Final residual = 6.1382e-05, No Iterations 13
GAMG:  Solving for p, Initial residual = 0.000663388, Final residual = 4.86382e-06, No Iterations 7
time step continuity errors : sum local = 3.69081e-06, global = 6.22029e-07, cumulative = 1.29951e-06
smoothSolver:  Solving for omega, Initial residual = 2.24063e-05, Final residual = 1.51736e-06, No Iterations 5
smoothSolver:  Solving for k, Initial residual = 0.000139091, Final residual = 8.65243e-06, No Iterations 5
ExecutionTime = 775.57 s  ClockTime = 786 s

continuityError continuityError1 write:
    local = 3.69081e-06
    global = 6.22029e-07
    cumulative = 6.22029e-07

yPlus yPlus write:
    writing field yPlus
    patch ball y+ : min = 0.359588, max = 9.08943, average = 5.77701
    functionObjects::CourantNo CourantNo writing field: Co
Time = 51

smoothSolver:  Solving for Ux, Initial residual = 3.21781e-05, Final residual = 2.9687e-06, No Iterations 13
smoothSolver:  Solving for Uy, Initial residual = 0.000582428, Final residual = 5.60991e-05, No Iterations 13
smoothSolver:  Solving for Uz, Initial residual = 0.000657068, Final residual = 6.3134e-05, No Iterations 13
GAMG:  Solving for p, Initial residual = 0.000709075, Final residual = 5.10434e-06, No Iterations 7
time step continuity errors : sum local = 3.81007e-06, global = 6.25101e-07, cumulative = 1.92461e-06
smoothSolver:  Solving for omega, Initial residual = 2.24037e-05, Final residual = 1.50245e-06, No Iterations 5
smoothSolver:  Solving for k, Initial residual = 0.000140654, Final residual = 8.63201e-06, No Iterations 5
ExecutionTime = 794.79 s  ClockTime = 806 s

Time = 52

smoothSolver:  Solving for Ux, Initial residual = 3.29004e-05, Final residual = 3.02536e-06, No Iterations 13
smoothSolver:  Solving for Uy, Initial residual = 0.000601935, Final residual = 5.7659e-05, No Iterations 13
smoothSolver:  Solving for Uz, Initial residual = 0.000687492, Final residual = 6.55073e-05, No Iterations 13
GAMG:  Solving for p, Initial residual = 0.00075436, Final residual = 5.46829e-06, No Iterations 7
time step continuity errors : sum local = 4.01407e-06, global = 6.59369e-07, cumulative = 2.58398e-06
smoothSolver:  Solving for omega, Initial residual = 2.24364e-05, Final residual = 1.48965e-06, No Iterations 5
smoothSolver:  Solving for k, Initial residual = 0.00014325, Final residual = 8.66329e-06, No Iterations 5
ExecutionTime = 810.21 s  ClockTime = 821 s

Time = 53

smoothSolver:  Solving for Ux, Initial residual = 3.37269e-05, Final residual = 3.09362e-06, No Iterations 13
smoothSolver:  Solving for Uy, Initial residual = 0.000629174, Final residual = 5.98127e-05, No Iterations 13
smoothSolver:  Solving for Uz, Initial residual = 0.000730269, Final residual = 6.89576e-05, No Iterations 13
GAMG:  Solving for p, Initial residual = 0.000801588, Final residual = 5.80076e-06, No Iterations 7
time step continuity errors : sum local = 4.18574e-06, global = 6.98451e-07, cumulative = 3.28243e-06
smoothSolver:  Solving for omega, Initial residual = 2.24851e-05, Final residual = 1.47833e-06, No Iterations 5
smoothSolver:  Solving for k, Initial residual = 0.000146888, Final residual = 8.75442e-06, No Iterations 5
ExecutionTime = 825.38 s  ClockTime = 837 s

Time = 54

smoothSolver:  Solving for Ux, Initial residual = 3.46941e-05, Final residual = 3.17547e-06, No Iterations 13
smoothSolver:  Solving for Uy, Initial residual = 0.000667542, Final residual = 6.29198e-05, No Iterations 13
smoothSolver:  Solving for Uz, Initial residual = 0.000788128, Final residual = 7.38395e-05, No Iterations 13
GAMG:  Solving for p, Initial residual = 0.000855282, Final residual = 6.02265e-06, No Iterations 7
time step continuity errors : sum local = 4.26948e-06, global = 7.25112e-07, cumulative = 4.00754e-06
smoothSolver:  Solving for omega, Initial residual = 2.25323e-05, Final residual = 1.46852e-06, No Iterations 5
smoothSolver:  Solving for k, Initial residual = 0.000151253, Final residual = 1.49873e-05, No Iterations 4
ExecutionTime = 840.56 s  ClockTime = 852 s

Time = 55

smoothSolver:  Solving for Ux, Initial residual = 3.5817e-05, Final residual = 3.26738e-06, No Iterations 13
smoothSolver:  Solving for Uy, Initial residual = 0.000721917, Final residual = 6.74097e-05, No Iterations 13
smoothSolver:  Solving for Uz, Initial residual = 0.000864918, Final residual = 8.04529e-05, No Iterations 13
GAMG:  Solving for p, Initial residual = 0.000920171, Final residual = 6.1201e-06, No Iterations 7
time step continuity errors : sum local = 4.25981e-06, global = 7.37859e-07, cumulative = 4.7454e-06
smoothSolver:  Solving for omega, Initial residual = 2.25609e-05, Final residual = 1.46043e-06, No Iterations 5
smoothSolver:  Solving for k, Initial residual = 0.00015667, Final residual = 1.53855e-05, No Iterations 4
ExecutionTime = 855.55 s  ClockTime = 867 s

Time = 56

smoothSolver:  Solving for Ux, Initial residual = 3.70919e-05, Final residual = 3.37028e-06, No Iterations 13
smoothSolver:  Solving for Uy, Initial residual = 0.000796948, Final residual = 7.37124e-05, No Iterations 13
smoothSolver:  Solving for Uz, Initial residual = 0.000967564, Final residual = 8.93168e-05, No Iterations 13
GAMG:  Solving for p, Initial residual = 0.000995922, Final residual = 6.11947e-06, No Iterations 7
time step continuity errors : sum local = 4.17824e-06, global = 7.36094e-07, cumulative = 5.48149e-06
smoothSolver:  Solving for omega, Initial residual = 2.25751e-05, Final residual = 1.45236e-06, No Iterations 5
smoothSolver:  Solving for k, Initial residual = 0.000162547, Final residual = 1.58765e-05, No Iterations 4
ExecutionTime = 870.52 s  ClockTime = 882 s

Time = 57

smoothSolver:  Solving for Ux, Initial residual = 3.85894e-05, Final residual = 3.48106e-06, No Iterations 13
smoothSolver:  Solving for Uy, Initial residual = 0.000900976, Final residual = 8.23611e-05, No Iterations 13
smoothSolver:  Solving for Uz, Initial residual = 0.00110559, Final residual = 0.000101245, No Iterations 13
GAMG:  Solving for p, Initial residual = 0.00108324, Final residual = 1.07102e-05, No Iterations 6
time step continuity errors : sum local = 7.16447e-06, global = 7.68356e-07, cumulative = 6.24985e-06
smoothSolver:  Solving for omega, Initial residual = 2.25645e-05, Final residual = 1.44362e-06, No Iterations 5
smoothSolver:  Solving for k, Initial residual = 0.000168672, Final residual = 1.64586e-05, No Iterations 4
ExecutionTime = 885.17 s  ClockTime = 896 s

Time = 58

smoothSolver:  Solving for Ux, Initial residual = 4.03609e-05, Final residual = 3.6026e-06, No Iterations 13
smoothSolver:  Solving for Uy, Initial residual = 0.00104455, Final residual = 9.42007e-05, No Iterations 13
smoothSolver:  Solving for Uz, Initial residual = 0.001296, Final residual = 0.000117629, No Iterations 13
GAMG:  Solving for p, Initial residual = 0.0011837, Final residual = 1.13602e-05, No Iterations 6
time step continuity errors : sum local = 7.43131e-06, global = 7.48328e-07, cumulative = 6.99818e-06
smoothSolver:  Solving for omega, Initial residual = 2.25214e-05, Final residual = 1.43366e-06, No Iterations 5
smoothSolver:  Solving for k, Initial residual = 0.000175321, Final residual = 1.71288e-05, No Iterations 4
ExecutionTime = 899.67 s  ClockTime = 911 s

Time = 59

smoothSolver:  Solving for Ux, Initial residual = 4.21705e-05, Final residual = 3.72761e-06, No Iterations 13
smoothSolver:  Solving for Uy, Initial residual = 0.00124652, Final residual = 0.000111163, No Iterations 13
smoothSolver:  Solving for Uz, Initial residual = 0.00156474, Final residual = 0.000141177, No Iterations 13
GAMG:  Solving for p, Initial residual = 0.00129677, Final residual = 1.20849e-05, No Iterations 6
time step continuity errors : sum local = 7.71971e-06, global = 6.38665e-07, cumulative = 7.63684e-06
smoothSolver:  Solving for omega, Initial residual = 2.2449e-05, Final residual = 1.42256e-06, No Iterations 5
smoothSolver:  Solving for k, Initial residual = 0.000181754, Final residual = 1.78361e-05, No Iterations 4
ExecutionTime = 914.24 s  ClockTime = 925 s

Time = 60

smoothSolver:  Solving for Ux, Initial residual = 4.41147e-05, Final residual = 3.84262e-06, No Iterations 13
smoothSolver:  Solving for Uy, Initial residual = 0.0015397, Final residual = 0.000135973, No Iterations 13
smoothSolver:  Solving for Uz, Initial residual = 0.00196219, Final residual = 0.000175843, No Iterations 13
GAMG:  Solving for p, Initial residual = 0.00142171, Final residual = 1.29997e-05, No Iterations 6
time step continuity errors : sum local = 8.09299e-06, global = 5.67306e-07, cumulative = 8.20415e-06
smoothSolver:  Solving for omega, Initial residual = 2.23495e-05, Final residual = 1.40946e-06, No Iterations 5
smoothSolver:  Solving for k, Initial residual = 0.000188395, Final residual = 1.85564e-05, No Iterations 4
ExecutionTime = 929.4 s  ClockTime = 941 s

Time = 61

smoothSolver:  Solving for Ux, Initial residual = 4.61154e-05, Final residual = 3.94809e-06, No Iterations 13
smoothSolver:  Solving for Uy, Initial residual = 0.00198846, Final residual = 0.00017415, No Iterations 13
smoothSolver:  Solving for Uz, Initial residual = 0.00259174, Final residual = 0.000230731, No Iterations 13
GAMG:  Solving for p, Initial residual = 0.0015554, Final residual = 1.36557e-05, No Iterations 6
time step continuity errors : sum local = 8.26725e-06, global = 5.6713e-07, cumulative = 8.77128e-06
smoothSolver:  Solving for omega, Initial residual = 2.22168e-05, Final residual = 1.39391e-06, No Iterations 5
smoothSolver:  Solving for k, Initial residual = 0.000194383, Final residual = 1.92558e-05, No Iterations 4
ExecutionTime = 944.15 s  ClockTime = 955 s

Time = 62

smoothSolver:  Solving for Ux, Initial residual = 4.80837e-05, Final residual = 4.74817e-06, No Iterations 12
smoothSolver:  Solving for Uy, Initial residual = 0.00274585, Final residual = 0.000237791, No Iterations 13
smoothSolver:  Solving for Uz, Initial residual = 0.00371461, Final residual = 0.000327542, No Iterations 13
GAMG:  Solving for p, Initial residual = 0.00169515, Final residual = 1.42261e-05, No Iterations 6
time step continuity errors : sum local = 8.35465e-06, global = 6.16643e-07, cumulative = 9.38792e-06
smoothSolver:  Solving for omega, Initial residual = 2.20526e-05, Final residual = 1.37601e-06, No Iterations 5
smoothSolver:  Solving for k, Initial residual = 0.000200129, Final residual = 1.99325e-05, No Iterations 4
ExecutionTime = 958.73 s  ClockTime = 970 s

Time = 63

smoothSolver:  Solving for Ux, Initial residual = 4.98163e-05, Final residual = 4.83492e-06, No Iterations 12
smoothSolver:  Solving for Uy, Initial residual = 0.00421871, Final residual = 0.00036091, No Iterations 13
smoothSolver:  Solving for Uz, Initial residual = 0.00610908, Final residual = 0.000532975, No Iterations 13
GAMG:  Solving for p, Initial residual = 0.00183278, Final residual = 1.49061e-05, No Iterations 6
time step continuity errors : sum local = 8.47878e-06, global = 6.4641e-07, cumulative = 1.00343e-05
smoothSolver:  Solving for omega, Initial residual = 2.18346e-05, Final residual = 1.35639e-06, No Iterations 5
smoothSolver:  Solving for k, Initial residual = 0.000204885, Final residual = 1.21265e-05, No Iterations 5
ExecutionTime = 974.45 s  ClockTime = 986 s

Time = 64

smoothSolver:  Solving for Ux, Initial residual = 5.13932e-05, Final residual = 4.90356e-06, No Iterations 12
smoothSolver:  Solving for Uy, Initial residual = 0.00848255, Final residual = 0.00084664, No Iterations 12
smoothSolver:  Solving for Uz, Initial residual = 0.0147456, Final residual = 0.00127216, No Iterations 13
GAMG:  Solving for p, Initial residual = 0.00198642, Final residual = 1.57423e-05, No Iterations 6
time step continuity errors : sum local = 8.64684e-06, global = 6.24734e-07, cumulative = 1.06591e-05
smoothSolver:  Solving for omega, Initial residual = 2.16054e-05, Final residual = 1.33562e-06, No Iterations 5
smoothSolver:  Solving for k, Initial residual = 0.000208596, Final residual = 1.24593e-05, No Iterations 5
ExecutionTime = 990.29 s  ClockTime = 1002 s

Time = 65

smoothSolver:  Solving for Ux, Initial residual = 5.27467e-05, Final residual = 4.93982e-06, No Iterations 12
smoothSolver:  Solving for Uy, Initial residual = 0.0186505, Final residual = 0.0018459, No Iterations 12
smoothSolver:  Solving for Uz, Initial residual = 0.0121708, Final residual = 0.00103732, No Iterations 13
GAMG:  Solving for p, Initial residual = 0.00216444, Final residual = 1.66342e-05, No Iterations 6
time step continuity errors : sum local = 8.80312e-06, global = 5.88893e-07, cumulative = 1.1248e-05
smoothSolver:  Solving for omega, Initial residual = 2.1355e-05, Final residual = 1.31489e-06, No Iterations 5
smoothSolver:  Solving for k, Initial residual = 0.000212209, Final residual = 1.27773e-05, No Iterations 5
ExecutionTime = 1006.34 s  ClockTime = 1018 s

Time = 66

smoothSolver:  Solving for Ux, Initial residual = 5.39575e-05, Final residual = 4.97483e-06, No Iterations 12
smoothSolver:  Solving for Uy, Initial residual = 0.00640622, Final residual = 0.000627429, No Iterations 12
smoothSolver:  Solving for Uz, Initial residual = 0.00618378, Final residual = 0.000615131, No Iterations 12
GAMG:  Solving for p, Initial residual = 0.00236935, Final residual = 1.74682e-05, No Iterations 6
time step continuity errors : sum local = 8.89651e-06, global = 5.38277e-07, cumulative = 1.17862e-05
smoothSolver:  Solving for omega, Initial residual = 2.11078e-05, Final residual = 2.10723e-06, No Iterations 4
smoothSolver:  Solving for k, Initial residual = 0.000216479, Final residual = 1.31483e-05, No Iterations 5
ExecutionTime = 1021.65 s  ClockTime = 1033 s

Time = 67

smoothSolver:  Solving for Ux, Initial residual = 5.52036e-05, Final residual = 5.01576e-06, No Iterations 12
smoothSolver:  Solving for Uy, Initial residual = 0.00390911, Final residual = 0.000378016, No Iterations 12
smoothSolver:  Solving for Uz, Initial residual = 0.00426452, Final residual = 0.000418445, No Iterations 12
GAMG:  Solving for p, Initial residual = 0.00259827, Final residual = 1.83044e-05, No Iterations 6
time step continuity errors : sum local = 8.98054e-06, global = 5.21623e-07, cumulative = 1.23079e-05
smoothSolver:  Solving for omega, Initial residual = 2.09894e-05, Final residual = 2.09479e-06, No Iterations 4
smoothSolver:  Solving for k, Initial residual = 0.000222726, Final residual = 1.36449e-05, No Iterations 5
ExecutionTime = 1036.29 s  ClockTime = 1048 s

Time = 68

smoothSolver:  Solving for Ux, Initial residual = 5.6623e-05, Final residual = 5.08343e-06, No Iterations 12
smoothSolver:  Solving for Uy, Initial residual = 0.00285727, Final residual = 0.000271914, No Iterations 12
smoothSolver:  Solving for Uz, Initial residual = 0.00331544, Final residual = 0.000319026, No Iterations 12
GAMG:  Solving for p, Initial residual = 0.00285162, Final residual = 1.8948e-05, No Iterations 6
time step continuity errors : sum local = 8.96818e-06, global = 5.31339e-07, cumulative = 1.28392e-05
smoothSolver:  Solving for omega, Initial residual = 2.08852e-05, Final residual = 2.08176e-06, No Iterations 4
smoothSolver:  Solving for k, Initial residual = 0.000231044, Final residual = 1.42974e-05, No Iterations 5
ExecutionTime = 1050.78 s  ClockTime = 1062 s

Time = 69

smoothSolver:  Solving for Ux, Initial residual = 5.83579e-05, Final residual = 5.16537e-06, No Iterations 12
smoothSolver:  Solving for Uy, Initial residual = 0.00228139, Final residual = 0.000212883, No Iterations 12
smoothSolver:  Solving for Uz, Initial residual = 0.00275197, Final residual = 0.000258492, No Iterations 12
GAMG:  Solving for p, Initial residual = 0.00312359, Final residual = 1.92591e-05, No Iterations 6
time step continuity errors : sum local = 8.81876e-06, global = 5.58034e-07, cumulative = 1.33972e-05
smoothSolver:  Solving for omega, Initial residual = 2.07778e-05, Final residual = 2.06822e-06, No Iterations 4
smoothSolver:  Solving for k, Initial residual = 0.000241371, Final residual = 1.51172e-05, No Iterations 5
ExecutionTime = 1065.19 s  ClockTime = 1077 s

Time = 70

smoothSolver:  Solving for Ux, Initial residual = 6.04575e-05, Final residual = 5.25954e-06, No Iterations 12
smoothSolver:  Solving for Uy, Initial residual = 0.00191756, Final residual = 0.000175043, No Iterations 12
smoothSolver:  Solving for Uz, Initial residual = 0.00238587, Final residual = 0.000218836, No Iterations 12
GAMG:  Solving for p, Initial residual = 0.00340186, Final residual = 1.91272e-05, No Iterations 6
time step continuity errors : sum local = 8.50553e-06, global = 6.02983e-07, cumulative = 1.40002e-05
smoothSolver:  Solving for omega, Initial residual = 2.06674e-05, Final residual = 2.05221e-06, No Iterations 4
smoothSolver:  Solving for k, Initial residual = 0.000254199, Final residual = 1.60951e-05, No Iterations 5
ExecutionTime = 1079.75 s  ClockTime = 1091 s

Time = 71

smoothSolver:  Solving for Ux, Initial residual = 6.28545e-05, Final residual = 5.38011e-06, No Iterations 12
smoothSolver:  Solving for Uy, Initial residual = 0.00166679, Final residual = 0.000148862, No Iterations 12
smoothSolver:  Solving for Uz, Initial residual = 0.00213919, Final residual = 0.000192054, No Iterations 12
GAMG:  Solving for p, Initial residual = 0.00367944, Final residual = 1.8621e-05, No Iterations 6
time step continuity errors : sum local = 8.07413e-06, global = 6.30069e-07, cumulative = 1.46303e-05
smoothSolver:  Solving for omega, Initial residual = 2.0531e-05, Final residual = 2.03303e-06, No Iterations 4
smoothSolver:  Solving for k, Initial residual = 0.000268671, Final residual = 1.7173e-05, No Iterations 5
ExecutionTime = 1093.81 s  ClockTime = 1105 s

Time = 72

smoothSolver:  Solving for Ux, Initial residual = 6.53723e-05, Final residual = 5.52583e-06, No Iterations 12
smoothSolver:  Solving for Uy, Initial residual = 0.00148225, Final residual = 0.000129605, No Iterations 12
smoothSolver:  Solving for Uz, Initial residual = 0.00196569, Final residual = 0.000173492, No Iterations 12
GAMG:  Solving for p, Initial residual = 0.00392738, Final residual = 1.85291e-05, No Iterations 6
time step continuity errors : sum local = 7.86417e-06, global = 6.08134e-07, cumulative = 1.52384e-05
smoothSolver:  Solving for omega, Initial residual = 2.03605e-05, Final residual = 2.01003e-06, No Iterations 4
smoothSolver:  Solving for k, Initial residual = 0.000284754, Final residual = 1.83051e-05, No Iterations 5
ExecutionTime = 1108.42 s  ClockTime = 1120 s

Time = 73

smoothSolver:  Solving for Ux, Initial residual = 6.77721e-05, Final residual = 6.77122e-06, No Iterations 11
smoothSolver:  Solving for Uy, Initial residual = 0.00134079, Final residual = 0.000114954, No Iterations 12
smoothSolver:  Solving for Uz, Initial residual = 0.00184162, Final residual = 0.000160016, No Iterations 12
GAMG:  Solving for p, Initial residual = 0.00413888, Final residual = 4.03087e-05, No Iterations 5
time step continuity errors : sum local = 1.67977e-05, global = 9.66615e-07, cumulative = 1.6205e-05
smoothSolver:  Solving for omega, Initial residual = 2.0159e-05, Final residual = 1.98571e-06, No Iterations 4
smoothSolver:  Solving for k, Initial residual = 0.000302324, Final residual = 1.94291e-05, No Iterations 5
ExecutionTime = 1122.54 s  ClockTime = 1134 s

Time = 74

smoothSolver:  Solving for Ux, Initial residual = 7.00983e-05, Final residual = 6.94324e-06, No Iterations 11
smoothSolver:  Solving for Uy, Initial residual = 0.00122361, Final residual = 0.000102426, No Iterations 12
smoothSolver:  Solving for Uz, Initial residual = 0.00174623, Final residual = 0.000148194, No Iterations 12
GAMG:  Solving for p, Initial residual = 0.00428292, Final residual = 4.12573e-05, No Iterations 5
time step continuity errors : sum local = 1.69283e-05, global = 9.36189e-07, cumulative = 1.71412e-05
smoothSolver:  Solving for omega, Initial residual = 1.99187e-05, Final residual = 1.96031e-06, No Iterations 4
smoothSolver:  Solving for k, Initial residual = 0.000320445, Final residual = 2.05405e-05, No Iterations 5
ExecutionTime = 1136.97 s  ClockTime = 1148 s

Time = 75

smoothSolver:  Solving for Ux, Initial residual = 7.17437e-05, Final residual = 7.02605e-06, No Iterations 11
smoothSolver:  Solving for Uy, Initial residual = 0.00113676, Final residual = 0.000111929, No Iterations 11
smoothSolver:  Solving for Uz, Initial residual = 0.00169024, Final residual = 0.000168378, No Iterations 11
GAMG:  Solving for p, Initial residual = 0.00436516, Final residual = 4.07878e-05, No Iterations 5
time step continuity errors : sum local = 1.65137e-05, global = 6.3432e-07, cumulative = 1.77755e-05
smoothSolver:  Solving for omega, Initial residual = 1.96789e-05, Final residual = 1.93461e-06, No Iterations 4
smoothSolver:  Solving for k, Initial residual = 0.000339442, Final residual = 2.16493e-05, No Iterations 5
ExecutionTime = 1150.94 s  ClockTime = 1162 s

Time = 76

smoothSolver:  Solving for Ux, Initial residual = 7.29412e-05, Final residual = 7.01836e-06, No Iterations 11
smoothSolver:  Solving for Uy, Initial residual = 0.00107058, Final residual = 0.000102963, No Iterations 11
smoothSolver:  Solving for Uz, Initial residual = 0.00166083, Final residual = 0.00016141, No Iterations 11
GAMG:  Solving for p, Initial residual = 0.00443991, Final residual = 4.19018e-05, No Iterations 5
time step continuity errors : sum local = 1.67941e-05, global = 4.18465e-07, cumulative = 1.8194e-05
smoothSolver:  Solving for omega, Initial residual = 1.94486e-05, Final residual = 1.90938e-06, No Iterations 4
smoothSolver:  Solving for k, Initial residual = 0.000359936, Final residual = 2.27607e-05, No Iterations 5
ExecutionTime = 1164.84 s  ClockTime = 1176 s

Time = 77

smoothSolver:  Solving for Ux, Initial residual = 7.38392e-05, Final residual = 6.99655e-06, No Iterations 11
smoothSolver:  Solving for Uy, Initial residual = 0.00101527, Final residual = 9.5465e-05, No Iterations 11
smoothSolver:  Solving for Uz, Initial residual = 0.00164547, Final residual = 0.000156438, No Iterations 11
GAMG:  Solving for p, Initial residual = 0.00451442, Final residual = 4.41754e-05, No Iterations 5
time step continuity errors : sum local = 1.75849e-05, global = 2.17044e-07, cumulative = 1.84111e-05
smoothSolver:  Solving for omega, Initial residual = 1.92111e-05, Final residual = 1.88599e-06, No Iterations 4
smoothSolver:  Solving for k, Initial residual = 0.000382369, Final residual = 2.39267e-05, No Iterations 5
ExecutionTime = 1178.61 s  ClockTime = 1190 s

Time = 78

smoothSolver:  Solving for Ux, Initial residual = 7.42549e-05, Final residual = 6.96521e-06, No Iterations 11
smoothSolver:  Solving for Uy, Initial residual = 0.000966584, Final residual = 8.91234e-05, No Iterations 11
smoothSolver:  Solving for Uz, Initial residual = 0.00164261, Final residual = 0.000153442, No Iterations 11
GAMG:  Solving for p, Initial residual = 0.00457951, Final residual = 2.36195e-05, No Iterations 6
time step continuity errors : sum local = 9.35861e-06, global = 4.80171e-08, cumulative = 1.84591e-05
smoothSolver:  Solving for omega, Initial residual = 1.89689e-05, Final residual = 1.86447e-06, No Iterations 4
smoothSolver:  Solving for k, Initial residual = 0.000407442, Final residual = 2.51836e-05, No Iterations 5
ExecutionTime = 1192.9 s  ClockTime = 1204 s

Time = 79

smoothSolver:  Solving for Ux, Initial residual = 7.40297e-05, Final residual = 6.94218e-06, No Iterations 11
smoothSolver:  Solving for Uy, Initial residual = 0.000926183, Final residual = 8.42361e-05, No Iterations 11
smoothSolver:  Solving for Uz, Initial residual = 0.00165822, Final residual = 0.000152917, No Iterations 11
GAMG:  Solving for p, Initial residual = 0.00463371, Final residual = 2.3793e-05, No Iterations 6
time step continuity errors : sum local = 9.3885e-06, global = -3.71252e-08, cumulative = 1.84219e-05
smoothSolver:  Solving for omega, Initial residual = 1.87132e-05, Final residual = 1.84555e-06, No Iterations 4
smoothSolver:  Solving for k, Initial residual = 0.000432701, Final residual = 2.65193e-05, No Iterations 5
ExecutionTime = 1207.2 s  ClockTime = 1219 s

Time = 80

smoothSolver:  Solving for Ux, Initial residual = 7.32032e-05, Final residual = 6.86121e-06, No Iterations 11
smoothSolver:  Solving for Uy, Initial residual = 0.000893784, Final residual = 8.06025e-05, No Iterations 11
smoothSolver:  Solving for Uz, Initial residual = 0.00168587, Final residual = 0.00015448, No Iterations 11
GAMG:  Solving for p, Initial residual = 0.00464439, Final residual = 2.43019e-05, No Iterations 6
time step continuity errors : sum local = 9.54252e-06, global = -1.20214e-07, cumulative = 1.83017e-05
smoothSolver:  Solving for omega, Initial residual = 1.84361e-05, Final residual = 1.82804e-06, No Iterations 4
smoothSolver:  Solving for k, Initial residual = 0.000458512, Final residual = 2.78171e-05, No Iterations 5
ExecutionTime = 1221.53 s  ClockTime = 1233 s

Time = 81

smoothSolver:  Solving for Ux, Initial residual = 7.16533e-05, Final residual = 6.73677e-06, No Iterations 11
smoothSolver:  Solving for Uy, Initial residual = 0.000874294, Final residual = 7.92531e-05, No Iterations 11
smoothSolver:  Solving for Uz, Initial residual = 0.00173892, Final residual = 0.000160709, No Iterations 11
GAMG:  Solving for p, Initial residual = 0.00460508, Final residual = 2.38594e-05, No Iterations 6
time step continuity errors : sum local = 9.31026e-06, global = -1.83668e-07, cumulative = 1.81181e-05
smoothSolver:  Solving for omega, Initial residual = 1.8095e-05, Final residual = 1.09454e-06, No Iterations 5
smoothSolver:  Solving for k, Initial residual = 0.000481509, Final residual = 2.89318e-05, No Iterations 5
ExecutionTime = 1235.61 s  ClockTime = 1247 s

Time = 82

smoothSolver:  Solving for Ux, Initial residual = 6.99026e-05, Final residual = 6.57083e-06, No Iterations 11
smoothSolver:  Solving for Uy, Initial residual = 0.000875347, Final residual = 8.07175e-05, No Iterations 11
smoothSolver:  Solving for Uz, Initial residual = 0.00182832, Final residual = 0.000172463, No Iterations 11
GAMG:  Solving for p, Initial residual = 0.00451033, Final residual = 2.28372e-05, No Iterations 6
time step continuity errors : sum local = 8.82268e-06, global = -2.21246e-07, cumulative = 1.78968e-05
smoothSolver:  Solving for omega, Initial residual = 1.75975e-05, Final residual = 1.07358e-06, No Iterations 5
smoothSolver:  Solving for k, Initial residual = 0.000501091, Final residual = 2.9772e-05, No Iterations 5
ExecutionTime = 1249.96 s  ClockTime = 1261 s

Time = 83

smoothSolver:  Solving for Ux, Initial residual = 6.81748e-05, Final residual = 6.41439e-06, No Iterations 11
smoothSolver:  Solving for Uy, Initial residual = 0.000898975, Final residual = 8.57605e-05, No Iterations 11
smoothSolver:  Solving for Uz, Initial residual = 0.00197826, Final residual = 0.000192893, No Iterations 11
GAMG:  Solving for p, Initial residual = 0.00438426, Final residual = 4.30596e-05, No Iterations 5
time step continuity errors : sum local = 1.64157e-05, global = -5.60749e-07, cumulative = 1.73361e-05
smoothSolver:  Solving for omega, Initial residual = 1.70981e-05, Final residual = 1.04986e-06, No Iterations 5
smoothSolver:  Solving for k, Initial residual = 0.000515526, Final residual = 3.02754e-05, No Iterations 5
ExecutionTime = 1263.84 s  ClockTime = 1275 s

Time = 84

smoothSolver:  Solving for Ux, Initial residual = 6.69925e-05, Final residual = 6.28805e-06, No Iterations 11
smoothSolver:  Solving for Uy, Initial residual = 0.000946702, Final residual = 9.4328e-05, No Iterations 11
smoothSolver:  Solving for Uz, Initial residual = 0.00219868, Final residual = 0.000188063, No Iterations 12
GAMG:  Solving for p, Initial residual = 0.0042578, Final residual = 4.17577e-05, No Iterations 5
time step continuity errors : sum local = 1.56528e-05, global = -8.3028e-07, cumulative = 1.65058e-05
smoothSolver:  Solving for omega, Initial residual = 1.66307e-05, Final residual = 1.02398e-06, No Iterations 5
smoothSolver:  Solving for k, Initial residual = 0.000523437, Final residual = 5.2319e-05, No Iterations 4
ExecutionTime = 1277.85 s  ClockTime = 1289 s

Time = 85

smoothSolver:  Solving for Ux, Initial residual = 6.71478e-05, Final residual = 6.29227e-06, No Iterations 11
smoothSolver:  Solving for Uy, Initial residual = 0.00103087, Final residual = 8.95621e-05, No Iterations 12
smoothSolver:  Solving for Uz, Initial residual = 0.00252843, Final residual = 0.000222835, No Iterations 12
GAMG:  Solving for p, Initial residual = 0.00418012, Final residual = 3.8779e-05, No Iterations 5
time step continuity errors : sum local = 1.42013e-05, global = -9.25659e-07, cumulative = 1.55801e-05
smoothSolver:  Solving for omega, Initial residual = 1.61383e-05, Final residual = 9.94e-07, No Iterations 5
smoothSolver:  Solving for k, Initial residual = 0.000527386, Final residual = 5.20811e-05, No Iterations 4
ExecutionTime = 1292.38 s  ClockTime = 1304 s

Time = 86

smoothSolver:  Solving for Ux, Initial residual = 6.81017e-05, Final residual = 6.41135e-06, No Iterations 11
smoothSolver:  Solving for Uy, Initial residual = 0.00113917, Final residual = 9.88422e-05, No Iterations 12
smoothSolver:  Solving for Uz, Initial residual = 0.00298838, Final residual = 0.000264268, No Iterations 12
GAMG:  Solving for p, Initial residual = 0.00432487, Final residual = 3.74924e-05, No Iterations 5
time step continuity errors : sum local = 1.33245e-05, global = -1.00179e-06, cumulative = 1.45783e-05
smoothSolver:  Solving for omega, Initial residual = 1.56392e-05, Final residual = 9.61715e-07, No Iterations 5
smoothSolver:  Solving for k, Initial residual = 0.00052504, Final residual = 5.14702e-05, No Iterations 4
ExecutionTime = 1306.22 s  ClockTime = 1318 s

Time = 87

smoothSolver:  Solving for Ux, Initial residual = 6.95254e-05, Final residual = 6.59266e-06, No Iterations 11
smoothSolver:  Solving for Uy, Initial residual = 0.00126097, Final residual = 0.000106845, No Iterations 12
smoothSolver:  Solving for Uz, Initial residual = 0.00355416, Final residual = 0.000308694, No Iterations 12
GAMG:  Solving for p, Initial residual = 0.00465272, Final residual = 3.72561e-05, No Iterations 5
time step continuity errors : sum local = 1.27552e-05, global = -1.02014e-06, cumulative = 1.35582e-05
smoothSolver:  Solving for omega, Initial residual = 1.50899e-05, Final residual = 9.26155e-07, No Iterations 5
smoothSolver:  Solving for k, Initial residual = 0.000517059, Final residual = 5.01031e-05, No Iterations 4
ExecutionTime = 1320.69 s  ClockTime = 1332 s

Time = 88

smoothSolver:  Solving for Ux, Initial residual = 7.04795e-05, Final residual = 6.74195e-06, No Iterations 11
smoothSolver:  Solving for Uy, Initial residual = 0.00137067, Final residual = 0.000135826, No Iterations 11
smoothSolver:  Solving for Uz, Initial residual = 0.00414898, Final residual = 0.000350919, No Iterations 12
GAMG:  Solving for p, Initial residual = 0.00508649, Final residual = 3.71961e-05, No Iterations 5
time step continuity errors : sum local = 1.21876e-05, global = -9.61297e-07, cumulative = 1.25969e-05
smoothSolver:  Solving for omega, Initial residual = 1.45214e-05, Final residual = 8.91096e-07, No Iterations 5
smoothSolver:  Solving for k, Initial residual = 0.000503067, Final residual = 4.88161e-05, No Iterations 4
ExecutionTime = 1334.8 s  ClockTime = 1346 s

Time = 89

smoothSolver:  Solving for Ux, Initial residual = 7.04982e-05, Final residual = 6.77918e-06, No Iterations 11
smoothSolver:  Solving for Uy, Initial residual = 0.00145911, Final residual = 0.000141136, No Iterations 11
smoothSolver:  Solving for Uz, Initial residual = 0.00466499, Final residual = 0.000462399, No Iterations 11
GAMG:  Solving for p, Initial residual = 0.00553429, Final residual = 3.63568e-05, No Iterations 5
time step continuity errors : sum local = 1.13624e-05, global = -8.29884e-07, cumulative = 1.1767e-05
smoothSolver:  Solving for omega, Initial residual = 1.39586e-05, Final residual = 8.57164e-07, No Iterations 5
smoothSolver:  Solving for k, Initial residual = 0.000485576, Final residual = 4.71347e-05, No Iterations 4
ExecutionTime = 1348.86 s  ClockTime = 1360 s

Time = 90

smoothSolver:  Solving for Ux, Initial residual = 6.92432e-05, Final residual = 6.67502e-06, No Iterations 11
smoothSolver:  Solving for Uy, Initial residual = 0.00149198, Final residual = 0.000141408, No Iterations 11
smoothSolver:  Solving for Uz, Initial residual = 0.00499834, Final residual = 0.000481259, No Iterations 11
GAMG:  Solving for p, Initial residual = 0.00586686, Final residual = 3.50738e-05, No Iterations 5
time step continuity errors : sum local = 1.05186e-05, global = -5.67482e-07, cumulative = 1.11995e-05
smoothSolver:  Solving for omega, Initial residual = 1.34488e-05, Final residual = 8.25638e-07, No Iterations 5
smoothSolver:  Solving for k, Initial residual = 0.000463391, Final residual = 4.53128e-05, No Iterations 4
ExecutionTime = 1362.65 s  ClockTime = 1374 s

Time = 91

smoothSolver:  Solving for Ux, Initial residual = 6.67427e-05, Final residual = 6.40416e-06, No Iterations 11
smoothSolver:  Solving for Uy, Initial residual = 0.00147778, Final residual = 0.00013641, No Iterations 11
smoothSolver:  Solving for Uz, Initial residual = 0.00496649, Final residual = 0.000465904, No Iterations 11
GAMG:  Solving for p, Initial residual = 0.00594342, Final residual = 3.49712e-05, No Iterations 5
time step continuity errors : sum local = 1.02165e-05, global = -2.98673e-07, cumulative = 1.09009e-05
smoothSolver:  Solving for omega, Initial residual = 1.29643e-05, Final residual = 7.97075e-07, No Iterations 5
smoothSolver:  Solving for k, Initial residual = 0.000437792, Final residual = 4.31642e-05, No Iterations 4
ExecutionTime = 1376.94 s  ClockTime = 1389 s

Time = 92

smoothSolver:  Solving for Ux, Initial residual = 6.32173e-05, Final residual = 5.99406e-06, No Iterations 11
smoothSolver:  Solving for Uy, Initial residual = 0.00140663, Final residual = 0.000126388, No Iterations 11
smoothSolver:  Solving for Uz, Initial residual = 0.00452861, Final residual = 0.000415193, No Iterations 11
GAMG:  Solving for p, Initial residual = 0.00580277, Final residual = 3.77601e-05, No Iterations 5
time step continuity errors : sum local = 1.08339e-05, global = -2.31536e-08, cumulative = 1.08777e-05
smoothSolver:  Solving for omega, Initial residual = 1.25046e-05, Final residual = 7.69855e-07, No Iterations 5
smoothSolver:  Solving for k, Initial residual = 0.000411057, Final residual = 4.09595e-05, No Iterations 4
ExecutionTime = 1390.54 s  ClockTime = 1402 s

Time = 93

smoothSolver:  Solving for Ux, Initial residual = 5.90077e-05, Final residual = 5.47958e-06, No Iterations 11
smoothSolver:  Solving for Uy, Initial residual = 0.00128792, Final residual = 0.00011354, No Iterations 11
smoothSolver:  Solving for Uz, Initial residual = 0.00380722, Final residual = 0.000342636, No Iterations 11
GAMG:  Solving for p, Initial residual = 0.00554178, Final residual = 4.1048e-05, No Iterations 5
time step continuity errors : sum local = 1.16097e-05, global = 1.59132e-07, cumulative = 1.10368e-05
smoothSolver:  Solving for omega, Initial residual = 1.20579e-05, Final residual = 7.43797e-07, No Iterations 5
smoothSolver:  Solving for k, Initial residual = 0.000384043, Final residual = 2.23034e-05, No Iterations 5
ExecutionTime = 1404.48 s  ClockTime = 1416 s

Time = 94

smoothSolver:  Solving for Ux, Initial residual = 5.47688e-05, Final residual = 4.98098e-06, No Iterations 11
smoothSolver:  Solving for Uy, Initial residual = 0.00113912, Final residual = 0.000100008, No Iterations 11
smoothSolver:  Solving for Uz, Initial residual = 0.00301221, Final residual = 0.000268756, No Iterations 11
GAMG:  Solving for p, Initial residual = 0.00517305, Final residual = 4.36444e-05, No Iterations 5
time step continuity errors : sum local = 1.22191e-05, global = 3.04753e-07, cumulative = 1.13416e-05
smoothSolver:  Solving for omega, Initial residual = 1.1629e-05, Final residual = 7.19291e-07, No Iterations 5
smoothSolver:  Solving for k, Initial residual = 0.000353967, Final residual = 2.08063e-05, No Iterations 5
ExecutionTime = 1418.87 s  ClockTime = 1430 s

Time = 95

smoothSolver:  Solving for Ux, Initial residual = 5.11564e-05, Final residual = 4.59062e-06, No Iterations 11
smoothSolver:  Solving for Uy, Initial residual = 0.000997837, Final residual = 8.89641e-05, No Iterations 11
smoothSolver:  Solving for Uz, Initial residual = 0.00233416, Final residual = 0.000211467, No Iterations 11
GAMG:  Solving for p, Initial residual = 0.0047377, Final residual = 4.46835e-05, No Iterations 5
time step continuity errors : sum local = 1.2438e-05, global = 3.54701e-07, cumulative = 1.16963e-05
smoothSolver:  Solving for omega, Initial residual = 1.12276e-05, Final residual = 6.96524e-07, No Iterations 5
smoothSolver:  Solving for k, Initial residual = 0.000324876, Final residual = 1.94313e-05, No Iterations 5
ExecutionTime = 1432.94 s  ClockTime = 1445 s

Time = 96

[...]
smoothSolver:  Solving for omega, Initial residual = 7.76975e-07, Final residual = 4.91984e-08, No Iterations 5
smoothSolver:  Solving for k, Initial residual = 1.82652e-05, Final residual = 1.37559e-06, No Iterations 5
bounding k, min: -3.6371e-07 max: 0.0819182 average: 0.0071954
ExecutionTime = 14478.2 s  ClockTime = 14633 s

Time = 979

smoothSolver:  Solving for Ux, Initial residual = 4.64221e-06, Final residual = 4.5436e-07, No Iterations 11
smoothSolver:  Solving for Uy, Initial residual = 9.14983e-05, Final residual = 7.95725e-06, No Iterations 13
smoothSolver:  Solving for Uz, Initial residual = 5.28621e-05, Final residual = 5.15473e-06, No Iterations 12
GAMG:  Solving for p, Initial residual = 0.000423763, Final residual = 3.13618e-06, No Iterations 6
time step continuity errors : sum local = 7.03514e-07, global = 2.67302e-08, cumulative = 1.03311e-05
smoothSolver:  Solving for omega, Initial residual = 7.63627e-07, Final residual = 4.81836e-08, No Iterations 5
smoothSolver:  Solving for k, Initial residual = 1.81428e-05, Final residual = 1.34014e-06, No Iterations 5
bounding k, min: -1.88902e-07 max: 0.0821047 average: 0.00719577
ExecutionTime = 14492.8 s  ClockTime = 14647 s

Time = 980

smoothSolver:  Solving for Ux, Initial residual = 4.75514e-06, Final residual = 4.71051e-07, No Iterations 11
smoothSolver:  Solving for Uy, Initial residual = 9.62343e-05, Final residual = 8.37164e-06, No Iterations 13
smoothSolver:  Solving for Uz, Initial residual = 5.5926e-05, Final residual = 5.43052e-06, No Iterations 12
GAMG:  Solving for p, Initial residual = 0.000424245, Final residual = 3.05001e-06, No Iterations 6
time step continuity errors : sum local = 6.83961e-07, global = 3.04021e-08, cumulative = 1.03615e-05
smoothSolver:  Solving for omega, Initial residual = 7.5249e-07, Final residual = 4.73353e-08, No Iterations 5
smoothSolver:  Solving for k, Initial residual = 1.82378e-05, Final residual = 1.31606e-06, No Iterations 5
bounding k, min: -1.69565e-07 max: 0.082616 average: 0.00719625
ExecutionTime = 14507.5 s  ClockTime = 14662 s

Time = 981

smoothSolver:  Solving for Ux, Initial residual = 4.87165e-06, Final residual = 4.86154e-07, No Iterations 11
smoothSolver:  Solving for Uy, Initial residual = 0.000100599, Final residual = 8.67129e-06, No Iterations 13
smoothSolver:  Solving for Uz, Initial residual = 5.86291e-05, Final residual = 5.63248e-06, No Iterations 12
GAMG:  Solving for p, Initial residual = 0.000440942, Final residual = 2.9783e-06, No Iterations 6
time step continuity errors : sum local = 6.67685e-07, global = 3.12906e-08, cumulative = 1.03928e-05
smoothSolver:  Solving for omega, Initial residual = 7.44107e-07, Final residual = 4.66793e-08, No Iterations 5
smoothSolver:  Solving for k, Initial residual = 1.85084e-05, Final residual = 1.30549e-06, No Iterations 5
bounding k, min: -6.82915e-08 max: 0.0831957 average: 0.00719684
ExecutionTime = 14522.3 s  ClockTime = 14677 s

Time = 982

smoothSolver:  Solving for Ux, Initial residual = 4.97471e-06, Final residual = 4.16351e-07, No Iterations 12
smoothSolver:  Solving for Uy, Initial residual = 0.000103967, Final residual = 8.82961e-06, No Iterations 13
smoothSolver:  Solving for Uz, Initial residual = 6.0743e-05, Final residual = 5.74789e-06, No Iterations 12
GAMG:  Solving for p, Initial residual = 0.000464242, Final residual = 2.91149e-06, No Iterations 6
time step continuity errors : sum local = 6.5255e-07, global = 2.96424e-08, cumulative = 1.04225e-05
smoothSolver:  Solving for omega, Initial residual = 7.39108e-07, Final residual = 4.62858e-08, No Iterations 5
smoothSolver:  Solving for k, Initial residual = 1.88656e-05, Final residual = 1.30677e-06, No Iterations 5
bounding k, min: -2.96322e-07 max: 0.0837163 average: 0.00719753
ExecutionTime = 14536.7 s  ClockTime = 14691 s

Time = 983

smoothSolver:  Solving for Ux, Initial residual = 5.05642e-06, Final residual = 4.22768e-07, No Iterations 12
smoothSolver:  Solving for Uy, Initial residual = 0.000106733, Final residual = 1.06261e-05, No Iterations 12
smoothSolver:  Solving for Uz, Initial residual = 6.24774e-05, Final residual = 5.80998e-06, No Iterations 12
GAMG:  Solving for p, Initial residual = 0.000492548, Final residual = 2.81374e-06, No Iterations 6
time step continuity errors : sum local = 6.30526e-07, global = 2.35885e-08, cumulative = 1.04461e-05
smoothSolver:  Solving for omega, Initial residual = 7.37164e-07, Final residual = 4.61555e-08, No Iterations 5
smoothSolver:  Solving for k, Initial residual = 1.92768e-05, Final residual = 1.31647e-06, No Iterations 5
bounding k, min: -2.91402e-07 max: 0.0846869 average: 0.0071983
ExecutionTime = 14551.8 s  ClockTime = 14706 s

Time = 984

smoothSolver:  Solving for Ux, Initial residual = 5.1224e-06, Final residual = 5.10089e-07, No Iterations 11
smoothSolver:  Solving for Uy, Initial residual = 0.000108458, Final residual = 1.05869e-05, No Iterations 12
smoothSolver:  Solving for Uz, Initial residual = 6.31994e-05, Final residual = 5.7645e-06, No Iterations 12
GAMG:  Solving for p, Initial residual = 0.000523283, Final residual = 2.69764e-06, No Iterations 6
time step continuity errors : sum local = 6.04443e-07, global = 1.48704e-08, cumulative = 1.04609e-05
smoothSolver:  Solving for omega, Initial residual = 7.38651e-07, Final residual = 4.63214e-08, No Iterations 5
smoothSolver:  Solving for k, Initial residual = 1.97132e-05, Final residual = 1.33341e-06, No Iterations 5
bounding k, min: -3.43307e-07 max: 0.0857714 average: 0.00719914
ExecutionTime = 14566.3 s  ClockTime = 14721 s

Time = 985

smoothSolver:  Solving for Ux, Initial residual = 5.16875e-06, Final residual = 5.12044e-07, No Iterations 11
smoothSolver:  Solving for Uy, Initial residual = 0.000108162, Final residual = 1.03176e-05, No Iterations 12
smoothSolver:  Solving for Uz, Initial residual = 6.30954e-05, Final residual = 5.6277e-06, No Iterations 12
GAMG:  Solving for p, Initial residual = 0.00055452, Final residual = 5.47973e-06, No Iterations 5
time step continuity errors : sum local = 1.22775e-06, global = -2.55229e-08, cumulative = 1.04354e-05
smoothSolver:  Solving for omega, Initial residual = 7.43254e-07, Final residual = 4.67895e-08, No Iterations 5
smoothSolver:  Solving for k, Initial residual = 2.00446e-05, Final residual = 1.35783e-06, No Iterations 5
bounding k, min: -2.51007e-07 max: 0.0866125 average: 0.00720004
ExecutionTime = 14580.4 s  ClockTime = 14735 s

Time = 986

smoothSolver:  Solving for Ux, Initial residual = 5.18008e-06, Final residual = 5.09295e-07, No Iterations 11
smoothSolver:  Solving for Uy, Initial residual = 0.000106368, Final residual = 9.89609e-06, No Iterations 12
smoothSolver:  Solving for Uz, Initial residual = 6.23619e-05, Final residual = 5.4329e-06, No Iterations 12
GAMG:  Solving for p, Initial residual = 0.000581459, Final residual = 5.60696e-06, No Iterations 5
time step continuity errors : sum local = 1.25626e-06, global = -3.91734e-08, cumulative = 1.03962e-05
smoothSolver:  Solving for omega, Initial residual = 7.49182e-07, Final residual = 4.74638e-08, No Iterations 5
smoothSolver:  Solving for k, Initial residual = 2.0311e-05, Final residual = 1.38944e-06, No Iterations 5
bounding k, min: -2.74724e-07 max: 0.0874994 average: 0.00720097
ExecutionTime = 14594.8 s  ClockTime = 14749 s

Time = 987

smoothSolver:  Solving for Ux, Initial residual = 5.15955e-06, Final residual = 5.0249e-07, No Iterations 11
smoothSolver:  Solving for Uy, Initial residual = 0.000103945, Final residual = 9.42903e-06, No Iterations 12
smoothSolver:  Solving for Uz, Initial residual = 6.12782e-05, Final residual = 5.22731e-06, No Iterations 12
GAMG:  Solving for p, Initial residual = 0.00060211, Final residual = 5.24491e-06, No Iterations 5
time step continuity errors : sum local = 1.17531e-06, global = -5.71797e-08, cumulative = 1.0339e-05
smoothSolver:  Solving for omega, Initial residual = 7.56504e-07, Final residual = 4.82227e-08, No Iterations 5
smoothSolver:  Solving for k, Initial residual = 2.05638e-05, Final residual = 1.41854e-06, No Iterations 5
bounding k, min: -6.14607e-07 max: 0.0886627 average: 0.00720191
ExecutionTime = 14608.9 s  ClockTime = 14763 s

Time = 988

smoothSolver:  Solving for Ux, Initial residual = 5.09287e-06, Final residual = 4.9262e-07, No Iterations 11
smoothSolver:  Solving for Uy, Initial residual = 0.000100452, Final residual = 8.87866e-06, No Iterations 12
smoothSolver:  Solving for Uz, Initial residual = 5.94708e-05, Final residual = 4.97435e-06, No Iterations 12
GAMG:  Solving for p, Initial residual = 0.000616779, Final residual = 5.01711e-06, No Iterations 5
time step continuity errors : sum local = 1.12452e-06, global = -7.80909e-08, cumulative = 1.0261e-05
smoothSolver:  Solving for omega, Initial residual = 7.6376e-07, Final residual = 4.90135e-08, No Iterations 5
smoothSolver:  Solving for k, Initial residual = 2.07088e-05, Final residual = 1.44181e-06, No Iterations 5
bounding k, min: -9.61839e-08 max: 0.0898672 average: 0.00720286
ExecutionTime = 14623.2 s  ClockTime = 14778 s

Time = 989

smoothSolver:  Solving for Ux, Initial residual = 4.98602e-06, Final residual = 4.81922e-07, No Iterations 11
smoothSolver:  Solving for Uy, Initial residual = 9.62454e-05, Final residual = 8.29959e-06, No Iterations 12
smoothSolver:  Solving for Uz, Initial residual = 5.72534e-05, Final residual = 5.70955e-06, No Iterations 11
GAMG:  Solving for p, Initial residual = 0.000624309, Final residual = 4.97805e-06, No Iterations 5
time step continuity errors : sum local = 1.11611e-06, global = -9.23747e-08, cumulative = 1.01686e-05
smoothSolver:  Solving for omega, Initial residual = 7.7045e-07, Final residual = 4.97447e-08, No Iterations 5
smoothSolver:  Solving for k, Initial residual = 2.07383e-05, Final residual = 1.46562e-06, No Iterations 5
bounding k, min: -4.83692e-07 max: 0.0909082 average: 0.00720379
ExecutionTime = 14637.4 s  ClockTime = 14792 s

Time = 990

smoothSolver:  Solving for Ux, Initial residual = 4.88703e-06, Final residual = 4.71467e-07, No Iterations 11
smoothSolver:  Solving for Uy, Initial residual = 9.14115e-05, Final residual = 7.71995e-06, No Iterations 12
smoothSolver:  Solving for Uz, Initial residual = 5.49431e-05, Final residual = 5.42576e-06, No Iterations 11
GAMG:  Solving for p, Initial residual = 0.000626209, Final residual = 5.05482e-06, No Iterations 5
time step continuity errors : sum local = 1.13384e-06, global = -1.01137e-07, cumulative = 1.00674e-05
smoothSolver:  Solving for omega, Initial residual = 7.76806e-07, Final residual = 5.03023e-08, No Iterations 5
smoothSolver:  Solving for k, Initial residual = 2.06621e-05, Final residual = 1.48615e-06, No Iterations 5
bounding k, min: -7.33206e-07 max: 0.0918248 average: 0.00720469
ExecutionTime = 14651.4 s  ClockTime = 14806 s

Time = 991

smoothSolver:  Solving for Ux, Initial residual = 4.76663e-06, Final residual = 4.61429e-07, No Iterations 11
smoothSolver:  Solving for Uy, Initial residual = 8.64707e-05, Final residual = 7.1856e-06, No Iterations 12
smoothSolver:  Solving for Uz, Initial residual = 5.21791e-05, Final residual = 5.10996e-06, No Iterations 11
GAMG:  Solving for p, Initial residual = 0.000622949, Final residual = 5.20047e-06, No Iterations 5
time step continuity errors : sum local = 1.16714e-06, global = -9.50733e-08, cumulative = 9.97237e-06
smoothSolver:  Solving for omega, Initial residual = 7.81449e-07, Final residual = 5.06105e-08, No Iterations 5
smoothSolver:  Solving for k, Initial residual = 2.05036e-05, Final residual = 1.49446e-06, No Iterations 5
bounding k, min: -4.68909e-07 max: 0.0926378 average: 0.00720553
ExecutionTime = 14665.2 s  ClockTime = 14820 s

Time = 992

smoothSolver:  Solving for Ux, Initial residual = 4.64473e-06, Final residual = 4.51184e-07, No Iterations 11
smoothSolver:  Solving for Uy, Initial residual = 8.17861e-05, Final residual = 8.14924e-06, No Iterations 11
smoothSolver:  Solving for Uz, Initial residual = 4.92589e-05, Final residual = 4.7858e-06, No Iterations 11
GAMG:  Solving for p, Initial residual = 0.000614025, Final residual = 5.43909e-06, No Iterations 5
time step continuity errors : sum local = 1.2214e-06, global = -8.85013e-08, cumulative = 9.88387e-06
smoothSolver:  Solving for omega, Initial residual = 7.83479e-07, Final residual = 5.06483e-08, No Iterations 5
smoothSolver:  Solving for k, Initial residual = 2.02455e-05, Final residual = 1.49007e-06, No Iterations 5
bounding k, min: -6.35846e-07 max: 0.0933697 average: 0.0072063
ExecutionTime = 14679.2 s  ClockTime = 14834 s

Time = 993

smoothSolver:  Solving for Ux, Initial residual = 4.49705e-06, Final residual = 4.39301e-07, No Iterations 11
smoothSolver:  Solving for Uy, Initial residual = 7.80351e-05, Final residual = 6.49064e-06, No Iterations 12
smoothSolver:  Solving for Uz, Initial residual = 4.62101e-05, Final residual = 4.46903e-06, No Iterations 11
GAMG:  Solving for p, Initial residual = 0.000603985, Final residual = 5.77375e-06, No Iterations 5
time step continuity errors : sum local = 1.29735e-06, global = -8.90766e-08, cumulative = 9.79479e-06
smoothSolver:  Solving for omega, Initial residual = 7.82327e-07, Final residual = 5.04142e-08, No Iterations 5
smoothSolver:  Solving for k, Initial residual = 1.98762e-05, Final residual = 1.47753e-06, No Iterations 5
bounding k, min: -4.27301e-07 max: 0.09403 average: 0.007207
ExecutionTime = 14693.3 s  ClockTime = 14848 s

Time = 994

smoothSolver:  Solving for Ux, Initial residual = 4.36596e-06, Final residual = 4.27199e-07, No Iterations 11
smoothSolver:  Solving for Uy, Initial residual = 7.43219e-05, Final residual = 6.26716e-06, No Iterations 12
smoothSolver:  Solving for Uz, Initial residual = 4.34101e-05, Final residual = 4.20507e-06, No Iterations 11
GAMG:  Solving for p, Initial residual = 0.000587415, Final residual = 3.19618e-06, No Iterations 6
time step continuity errors : sum local = 7.18619e-07, global = -3.01589e-08, cumulative = 9.76464e-06
smoothSolver:  Solving for omega, Initial residual = 7.7759e-07, Final residual = 4.99035e-08, No Iterations 5
smoothSolver:  Solving for k, Initial residual = 1.94366e-05, Final residual = 1.45682e-06, No Iterations 5
bounding k, min: -5.98513e-07 max: 0.0946244 average: 0.0072076
ExecutionTime = 14707.9 s  ClockTime = 14862 s

Time = 995

smoothSolver:  Solving for Ux, Initial residual = 4.26098e-06, Final residual = 4.16979e-07, No Iterations 11
smoothSolver:  Solving for Uy, Initial residual = 7.16252e-05, Final residual = 6.19506e-06, No Iterations 12
smoothSolver:  Solving for Uz, Initial residual = 4.12533e-05, Final residual = 4.04338e-06, No Iterations 11
GAMG:  Solving for p, Initial residual = 0.000567904, Final residual = 3.13361e-06, No Iterations 6
time step continuity errors : sum local = 7.05002e-07, global = -2.75473e-08, cumulative = 9.73709e-06
smoothSolver:  Solving for omega, Initial residual = 7.7046e-07, Final residual = 4.92333e-08, No Iterations 5
smoothSolver:  Solving for k, Initial residual = 1.89459e-05, Final residual = 1.43223e-06, No Iterations 5
bounding k, min: -4.34566e-07 max: 0.0951537 average: 0.00720811
ExecutionTime = 14722.1 s  ClockTime = 14877 s

Time = 996

smoothSolver:  Solving for Ux, Initial residual = 4.14218e-06, Final residual = 4.03818e-07, No Iterations 11
smoothSolver:  Solving for Uy, Initial residual = 6.95412e-05, Final residual = 6.19906e-06, No Iterations 12
smoothSolver:  Solving for Uz, Initial residual = 3.98689e-05, Final residual = 3.34673e-06, No Iterations 12
GAMG:  Solving for p, Initial residual = 0.000543195, Final residual = 3.27424e-06, No Iterations 6
time step continuity errors : sum local = 7.37103e-07, global = -2.98555e-08, cumulative = 9.70723e-06
smoothSolver:  Solving for omega, Initial residual = 7.61636e-07, Final residual = 4.84439e-08, No Iterations 5
smoothSolver:  Solving for k, Initial residual = 1.84591e-05, Final residual = 1.40384e-06, No Iterations 5
bounding k, min: -6.53957e-07 max: 0.0956067 average: 0.0072085
ExecutionTime = 14736.6 s  ClockTime = 14891 s

Time = 997

smoothSolver:  Solving for Ux, Initial residual = 4.09289e-06, Final residual = 3.96708e-07, No Iterations 11
smoothSolver:  Solving for Uy, Initial residual = 6.87504e-05, Final residual = 6.35731e-06, No Iterations 12
smoothSolver:  Solving for Uz, Initial residual = 3.94357e-05, Final residual = 3.42543e-06, No Iterations 12
GAMG:  Solving for p, Initial residual = 0.000516825, Final residual = 3.27123e-06, No Iterations 6
time step continuity errors : sum local = 7.36874e-07, global = -2.69291e-08, cumulative = 9.6803e-06
smoothSolver:  Solving for omega, Initial residual = 7.52025e-07, Final residual = 4.76031e-08, No Iterations 5
smoothSolver:  Solving for k, Initial residual = 1.80408e-05, Final residual = 1.37557e-06, No Iterations 5
bounding k, min: -6.62707e-07 max: 0.0959606 average: 0.0072088
ExecutionTime = 14751.3 s  ClockTime = 14906 s

Time = 998

smoothSolver:  Solving for Ux, Initial residual = 4.07735e-06, Final residual = 3.93906e-07, No Iterations 11
smoothSolver:  Solving for Uy, Initial residual = 6.90747e-05, Final residual = 6.62567e-06, No Iterations 12
smoothSolver:  Solving for Uz, Initial residual = 3.9796e-05, Final residual = 3.61949e-06, No Iterations 12
GAMG:  Solving for p, Initial residual = 0.000488464, Final residual = 3.28963e-06, No Iterations 6
time step continuity errors : sum local = 7.41486e-07, global = -3.00749e-08, cumulative = 9.65023e-06
smoothSolver:  Solving for omega, Initial residual = 7.43736e-07, Final residual = 4.68074e-08, No Iterations 5
smoothSolver:  Solving for k, Initial residual = 1.76986e-05, Final residual = 1.34806e-06, No Iterations 5
bounding k, min: -2.55707e-07 max: 0.0961058 average: 0.00720899
ExecutionTime = 14766.2 s  ClockTime = 14921 s

Time = 999

smoothSolver:  Solving for Ux, Initial residual = 4.12398e-06, Final residual = 3.99833e-07, No Iterations 11
smoothSolver:  Solving for Uy, Initial residual = 7.09802e-05, Final residual = 7.02574e-06, No Iterations 12
smoothSolver:  Solving for Uz, Initial residual = 4.10917e-05, Final residual = 3.90347e-06, No Iterations 12
GAMG:  Solving for p, Initial residual = 0.00045979, Final residual = 3.2464e-06, No Iterations 6
time step continuity errors : sum local = 7.3217e-07, global = -3.00827e-08, cumulative = 9.62015e-06
smoothSolver:  Solving for omega, Initial residual = 7.36366e-07, Final residual = 4.60678e-08, No Iterations 5
smoothSolver:  Solving for k, Initial residual = 1.7486e-05, Final residual = 1.32312e-06, No Iterations 5
bounding k, min: -7.15122e-07 max: 0.0960875 average: 0.00720907
ExecutionTime = 14781.2 s  ClockTime = 14936 s

Time = 1000

smoothSolver:  Solving for Ux, Initial residual = 4.20701e-06, Final residual = 4.12996e-07, No Iterations 11
smoothSolver:  Solving for Uy, Initial residual = 7.39858e-05, Final residual = 6.35297e-06, No Iterations 13
smoothSolver:  Solving for Uz, Initial residual = 4.32427e-05, Final residual = 4.23515e-06, No Iterations 12
GAMG:  Solving for p, Initial residual = 0.000435083, Final residual = 3.20096e-06, No Iterations 6
time step continuity errors : sum local = 7.22307e-07, global = -3.08933e-08, cumulative = 9.58925e-06
smoothSolver:  Solving for omega, Initial residual = 7.3032e-07, Final residual = 4.54419e-08, No Iterations 5
smoothSolver:  Solving for k, Initial residual = 1.74183e-05, Final residual = 1.30296e-06, No Iterations 5
bounding k, min: -8.36103e-07 max: 0.0960129 average: 0.00720907
ExecutionTime = 14805.1 s  ClockTime = 14967 s

continuityError continuityError1 write:
    local = 7.22307e-07
    global = -3.08933e-08
    cumulative = -2.15662e-07

yPlus yPlus write:
    writing field yPlus
    patch ball y+ : min = 0.318591, max = 8.60709, average = 4.70403
    functionObjects::CourantNo CourantNo writing field: Co
End

Finalising parallel run
