/*---------------------------------------------------------------------------*\
| =========                 |                                                 |
| \\      /  F ield         | OpenFOAM: The Open Source CFD Toolbox           |
|  \\    /   O peration     | Version:  2212                                  |
|   \\  /    A nd           | Website:  www.openfoam.com                      |
|    \\/     M anipulation  |                                                 |
\*---------------------------------------------------------------------------*/
Build  : _c9081d5d-20230220 OPENFOAM=2212 patch=230110 version=2212
Arch   : "LSB;label=32;scalar=64"
Exec   : simpleFoam
Date   : Apr 25 2023
Time   : 21:22:06
Host   : DESKTOP-CT961AV
PID    : 9164
I/O    : uncollated
Case   : /mnt/d/openfoam/20211010_basketball_flow/20220202_sphere_coff/basketball-002/basketballMesh/blog_1/006_case/002_cyclicAMI_run
nProcs : 1
trapFpe: Floating point exception trapping enabled (FOAM_SIGFPE).
fileModificationChecking : Monitoring run-time modified files using timeStampMaster (fileModificationSkew 5, maxFileModificationPolls 20)
allowSystemOperations : Allowing user-supplied system call operations

// * * * * * * * * * * * * * * * * * * * * * * * * * * * * * * * * * * * * * //
Create time

Create mesh for time = 0


SIMPLE: no convergence criteria found. Calculations will run for 1000 steps.

Reading field p

AMI: Creating addressing and weights between 3456 source faces and 3456 target faces
AMI: Patch source sum(weights) min:1 max:1.0001 average:1.00002
AMI: Patch target sum(weights) min:1 max:1.0001 average:1.00002
Reading field U

Reading/calculating face flux field phi

Selecting incompressible transport model Newtonian
Selecting turbulence model type RAS
Selecting RAS turbulence model kOmegaSST
Selecting patchDistMethod meshWave
bounding k, min: 0 max: 0.001 average: 0.001
RAS
{
    RASModel        kOmegaSST;
    turbulence      on;
    printCoeffs     on;
    alphaK1         0.85;
    alphaK2         1;
    alphaOmega1     0.5;
    alphaOmega2     0.856;
    gamma1          0.555556;
    gamma2          0.44;
    beta1           0.075;
    beta2           0.0828;
    betaStar        0.09;
    a1              0.31;
    b1              1;
    c1              10;
    F3              false;
    decayControl    false;
    kInf            0;
    omegaInf        0;
}

No MRF models present

No finite volume options present

Starting time loop

forceCoeffs forceCoeffs(sphereMeshed):
    rho: rhoInf
    Freestream density (rhoInf) set to 1
    Not including porosity effects
    magUInf: 1
    lRef   : 0.25
    Aref   : 0.0514458
    rhoInf : 1
    Selecting all coefficients
    - Drag force: Cd
    - Drag force front: Cd(f)
    - Drag force rear: Cd(r)
    - Lift force: Cl
    - Lift force front: Cl(f)
    - Lift force rear: Cl(r)
    - Pitch moment: CmPitch
    - Roll moment: CmRoll
    - Yaw moment: CmYaw
    - Side force: Cs
    - Side force front: Cs(f)
    - Side force rear: Cs(r)


Time = 1

smoothSolver:  Solving for Ux, Initial residual = 1, Final residual = 0.0933603, No Iterations 16
smoothSolver:  Solving for Uy, Initial residual = 1, Final residual = 0.0990742, No Iterations 16
smoothSolver:  Solving for Uz, Initial residual = 1, Final residual = 0.0992004, No Iterations 16
GAMG:  Solving for p, Initial residual = 1, Final residual = 0.00712374, No Iterations 11
time step continuity errors : sum local = 8.1633e-06, global = -1.30549e-06, cumulative = -1.30549e-06
smoothSolver:  Solving for omega, Initial residual = 0.0112968, Final residual = 0.000750525, No Iterations 3
smoothSolver:  Solving for k, Initial residual = 1, Final residual = 0.0792887, No Iterations 3
ExecutionTime = 3.32 s  ClockTime = 5 s

Time = 2

smoothSolver:  Solving for Ux, Initial residual = 0.0205899, Final residual = 0.00205526, No Iterations 13
smoothSolver:  Solving for Uy, Initial residual = 0.491824, Final residual = 0.0465207, No Iterations 14
smoothSolver:  Solving for Uz, Initial residual = 0.491966, Final residual = 0.0468483, No Iterations 14
GAMG:  Solving for p, Initial residual = 0.316373, Final residual = 0.00225975, No Iterations 6
time step continuity errors : sum local = 0.000243416, global = 1.31252e-05, cumulative = 1.18198e-05
smoothSolver:  Solving for omega, Initial residual = 0.00262256, Final residual = 0.000177316, No Iterations 1
smoothSolver:  Solving for k, Initial residual = 0.137824, Final residual = 0.00810111, No Iterations 3
ExecutionTime = 4.62 s  ClockTime = 6 s

Time = 3

smoothSolver:  Solving for Ux, Initial residual = 0.00693861, Final residual = 0.000684991, No Iterations 11
smoothSolver:  Solving for Uy, Initial residual = 0.309271, Final residual = 0.0302326, No Iterations 12
smoothSolver:  Solving for Uz, Initial residual = 0.223329, Final residual = 0.0220925, No Iterations 12
GAMG:  Solving for p, Initial residual = 0.082574, Final residual = 0.000615682, No Iterations 6
time step continuity errors : sum local = 0.00013505, global = 2.05572e-05, cumulative = 3.23769e-05
smoothSolver:  Solving for omega, Initial residual = 0.000521177, Final residual = 3.02345e-05, No Iterations 2
smoothSolver:  Solving for k, Initial residual = 0.0515466, Final residual = 0.00365919, No Iterations 3
ExecutionTime = 5.94 s  ClockTime = 7 s

Time = 4

smoothSolver:  Solving for Ux, Initial residual = 0.00520503, Final residual = 0.000491536, No Iterations 11
smoothSolver:  Solving for Uy, Initial residual = 0.205745, Final residual = 0.0203599, No Iterations 11
smoothSolver:  Solving for Uz, Initial residual = 0.157417, Final residual = 0.0156886, No Iterations 11
GAMG:  Solving for p, Initial residual = 0.0426197, Final residual = 0.000411743, No Iterations 5
time step continuity errors : sum local = 9.94821e-05, global = 1.47932e-05, cumulative = 4.71701e-05
smoothSolver:  Solving for omega, Initial residual = 0.000169894, Final residual = 1.59274e-05, No Iterations 2
smoothSolver:  Solving for k, Initial residual = 0.0462042, Final residual = 0.00365112, No Iterations 3
ExecutionTime = 7.12 s  ClockTime = 9 s

Time = 5

smoothSolver:  Solving for Ux, Initial residual = 0.00389596, Final residual = 0.000370663, No Iterations 11
smoothSolver:  Solving for Uy, Initial residual = 0.137967, Final residual = 0.0131703, No Iterations 11
smoothSolver:  Solving for Uz, Initial residual = 0.140617, Final residual = 0.013524, No Iterations 11
GAMG:  Solving for p, Initial residual = 0.0329382, Final residual = 0.000240417, No Iterations 5
time step continuity errors : sum local = 5.1073e-05, global = 7.21291e-06, cumulative = 5.4383e-05
smoothSolver:  Solving for omega, Initial residual = 8.12821e-05, Final residual = 5.39631e-06, No Iterations 3
smoothSolver:  Solving for k, Initial residual = 0.0534932, Final residual = 0.00442817, No Iterations 3
ExecutionTime = 8.43 s  ClockTime = 10 s

Time = 6

smoothSolver:  Solving for Ux, Initial residual = 0.00356156, Final residual = 0.000332021, No Iterations 12
smoothSolver:  Solving for Uy, Initial residual = 0.104466, Final residual = 0.00984561, No Iterations 12
smoothSolver:  Solving for Uz, Initial residual = 0.124159, Final residual = 0.0118219, No Iterations 12
GAMG:  Solving for p, Initial residual = 0.0297356, Final residual = 0.000270894, No Iterations 4
time step continuity errors : sum local = 5.11881e-05, global = -2.94463e-06, cumulative = 5.14384e-05
smoothSolver:  Solving for omega, Initial residual = 5.77817e-05, Final residual = 4.10074e-06, No Iterations 3
smoothSolver:  Solving for k, Initial residual = 0.0628075, Final residual = 0.00574667, No Iterations 3
ExecutionTime = 9.58 s  ClockTime = 11 s

Time = 7

smoothSolver:  Solving for Ux, Initial residual = 0.00284024, Final residual = 0.000269769, No Iterations 12
smoothSolver:  Solving for Uy, Initial residual = 0.0836896, Final residual = 0.0076621, No Iterations 12
smoothSolver:  Solving for Uz, Initial residual = 0.115821, Final residual = 0.0107078, No Iterations 12
GAMG:  Solving for p, Initial residual = 0.0264878, Final residual = 0.000208192, No Iterations 5
time step continuity errors : sum local = 3.62416e-05, global = -4.43734e-06, cumulative = 4.7001e-05
smoothSolver:  Solving for omega, Initial residual = 5.04442e-05, Final residual = 3.62884e-06, No Iterations 3
smoothSolver:  Solving for k, Initial residual = 0.0673528, Final residual = 0.0043256, No Iterations 4
ExecutionTime = 10.76 s  ClockTime = 12 s

Time = 8

smoothSolver:  Solving for Ux, Initial residual = 0.00226593, Final residual = 0.000218785, No Iterations 12
smoothSolver:  Solving for Uy, Initial residual = 0.0710348, Final residual = 0.00642063, No Iterations 12
smoothSolver:  Solving for Uz, Initial residual = 0.1107, Final residual = 0.0100364, No Iterations 12
GAMG:  Solving for p, Initial residual = 0.0240451, Final residual = 0.000174761, No Iterations 5
time step continuity errors : sum local = 2.83571e-05, global = -3.50501e-06, cumulative = 4.3496e-05
smoothSolver:  Solving for omega, Initial residual = 4.39065e-05, Final residual = 3.46292e-06, No Iterations 3
smoothSolver:  Solving for k, Initial residual = 0.0574152, Final residual = 0.00408374, No Iterations 4
ExecutionTime = 12.04 s  ClockTime = 14 s

Time = 9

smoothSolver:  Solving for Ux, Initial residual = 0.00183971, Final residual = 0.000161112, No Iterations 12
smoothSolver:  Solving for Uy, Initial residual = 0.0584838, Final residual = 0.00521547, No Iterations 12
smoothSolver:  Solving for Uz, Initial residual = 0.0996949, Final residual = 0.00890695, No Iterations 12
GAMG:  Solving for p, Initial residual = 0.0210073, Final residual = 0.000170438, No Iterations 4
time step continuity errors : sum local = 2.68042e-05, global = -2.8758e-06, cumulative = 4.06202e-05
smoothSolver:  Solving for omega, Initial residual = 4.04437e-05, Final residual = 3.46771e-06, No Iterations 3
smoothSolver:  Solving for k, Initial residual = 0.0475315, Final residual = 0.00369714, No Iterations 4
ExecutionTime = 13.49 s  ClockTime = 15 s

Time = 10

smoothSolver:  Solving for Ux, Initial residual = 0.00146271, Final residual = 0.000128923, No Iterations 12
smoothSolver:  Solving for Uy, Initial residual = 0.04978, Final residual = 0.00439172, No Iterations 12
smoothSolver:  Solving for Uz, Initial residual = 0.0860057, Final residual = 0.00760733, No Iterations 12
GAMG:  Solving for p, Initial residual = 0.0176089, Final residual = 0.000121514, No Iterations 4
time step continuity errors : sum local = 1.86948e-05, global = -1.50983e-06, cumulative = 3.91104e-05
smoothSolver:  Solving for omega, Initial residual = 3.88797e-05, Final residual = 3.53585e-06, No Iterations 3
smoothSolver:  Solving for k, Initial residual = 0.0395318, Final residual = 0.00330765, No Iterations 4
ExecutionTime = 14.62 s  ClockTime = 16 s

Time = 11

smoothSolver:  Solving for Ux, Initial residual = 0.00122339, Final residual = 0.000111583, No Iterations 12
smoothSolver:  Solving for Uy, Initial residual = 0.0430933, Final residual = 0.00391998, No Iterations 12
smoothSolver:  Solving for Uz, Initial residual = 0.0783674, Final residual = 0.00717648, No Iterations 12
GAMG:  Solving for p, Initial residual = 0.0152639, Final residual = 0.000102654, No Iterations 4
time step continuity errors : sum local = 1.56582e-05, global = 1.01618e-07, cumulative = 3.9212e-05
smoothSolver:  Solving for omega, Initial residual = 3.56959e-05, Final residual = 2.17191e-06, No Iterations 4
smoothSolver:  Solving for k, Initial residual = 0.029261, Final residual = 0.00259231, No Iterations 4
ExecutionTime = 16.06 s  ClockTime = 18 s

Time = 12

smoothSolver:  Solving for Ux, Initial residual = 0.00104081, Final residual = 9.81997e-05, No Iterations 12
smoothSolver:  Solving for Uy, Initial residual = 0.0375823, Final residual = 0.00349938, No Iterations 12
smoothSolver:  Solving for Uz, Initial residual = 0.0691732, Final residual = 0.00647494, No Iterations 12
GAMG:  Solving for p, Initial residual = 0.0134063, Final residual = 0.000106506, No Iterations 4
time step continuity errors : sum local = 1.64052e-05, global = 1.45813e-06, cumulative = 4.06701e-05
smoothSolver:  Solving for omega, Initial residual = 3.34138e-05, Final residual = 2.13589e-06, No Iterations 4
smoothSolver:  Solving for k, Initial residual = 0.0205437, Final residual = 0.00190116, No Iterations 4
ExecutionTime = 17.51 s  ClockTime = 19 s

Time = 13

smoothSolver:  Solving for Ux, Initial residual = 0.000883429, Final residual = 8.51075e-05, No Iterations 12
smoothSolver:  Solving for Uy, Initial residual = 0.0321847, Final residual = 0.00302125, No Iterations 12
smoothSolver:  Solving for Uz, Initial residual = 0.0591761, Final residual = 0.00559209, No Iterations 12
GAMG:  Solving for p, Initial residual = 0.0118487, Final residual = 0.00011071, No Iterations 4
time step continuity errors : sum local = 1.73372e-05, global = 2.02517e-06, cumulative = 4.26953e-05
smoothSolver:  Solving for omega, Initial residual = 3.1924e-05, Final residual = 2.08602e-06, No Iterations 4
smoothSolver:  Solving for k, Initial residual = 0.0152197, Final residual = 0.00145089, No Iterations 4
ExecutionTime = 19.13 s  ClockTime = 21 s

Time = 14

smoothSolver:  Solving for Ux, Initial residual = 0.000745713, Final residual = 6.4481e-05, No Iterations 13
smoothSolver:  Solving for Uy, Initial residual = 0.0287125, Final residual = 0.00269494, No Iterations 12
smoothSolver:  Solving for Uz, Initial residual = 0.0527651, Final residual = 0.00499148, No Iterations 12
GAMG:  Solving for p, Initial residual = 0.0106124, Final residual = 6.27853e-05, No Iterations 5
time step continuity errors : sum local = 9.9913e-06, global = 1.9696e-06, cumulative = 4.46649e-05
smoothSolver:  Solving for omega, Initial residual = 3.08119e-05, Final residual = 2.02496e-06, No Iterations 4
smoothSolver:  Solving for k, Initial residual = 0.0118063, Final residual = 0.00114482, No Iterations 4
ExecutionTime = 20.57 s  ClockTime = 22 s

Time = 15

smoothSolver:  Solving for Ux, Initial residual = 0.000647887, Final residual = 5.86858e-05, No Iterations 13
smoothSolver:  Solving for Uy, Initial residual = 0.0260261, Final residual = 0.00247658, No Iterations 12
smoothSolver:  Solving for Uz, Initial residual = 0.0478102, Final residual = 0.00462418, No Iterations 12
GAMG:  Solving for p, Initial residual = 0.00967516, Final residual = 5.72895e-05, No Iterations 5
time step continuity errors : sum local = 9.26472e-06, global = 1.65045e-06, cumulative = 4.63153e-05
smoothSolver:  Solving for omega, Initial residual = 2.94849e-05, Final residual = 1.95026e-06, No Iterations 4
smoothSolver:  Solving for k, Initial residual = 0.00951267, Final residual = 0.000929041, No Iterations 4
ExecutionTime = 21.79 s  ClockTime = 23 s

Time = 16

smoothSolver:  Solving for Ux, Initial residual = 0.00057093, Final residual = 5.30792e-05, No Iterations 13
smoothSolver:  Solving for Uy, Initial residual = 0.023569, Final residual = 0.00232686, No Iterations 12
smoothSolver:  Solving for Uz, Initial residual = 0.0442658, Final residual = 0.00385549, No Iterations 13
GAMG:  Solving for p, Initial residual = 0.00893493, Final residual = 5.07911e-05, No Iterations 5
time step continuity errors : sum local = 8.32493e-06, global = 1.258e-06, cumulative = 4.75733e-05
smoothSolver:  Solving for omega, Initial residual = 2.93232e-05, Final residual = 1.87604e-06, No Iterations 4
smoothSolver:  Solving for k, Initial residual = 0.00790486, Final residual = 0.000773561, No Iterations 4
ExecutionTime = 22.95 s  ClockTime = 25 s

Time = 17

smoothSolver:  Solving for Ux, Initial residual = 0.000513853, Final residual = 4.77915e-05, No Iterations 13
smoothSolver:  Solving for Uy, Initial residual = 0.0218839, Final residual = 0.00194821, No Iterations 13
smoothSolver:  Solving for Uz, Initial residual = 0.0424739, Final residual = 0.00382826, No Iterations 13
GAMG:  Solving for p, Initial residual = 0.00844594, Final residual = 4.61815e-05, No Iterations 5
time step continuity errors : sum local = 7.62894e-06, global = 8.94132e-07, cumulative = 4.84675e-05
smoothSolver:  Solving for omega, Initial residual = 2.77077e-05, Final residual = 1.80285e-06, No Iterations 4
smoothSolver:  Solving for k, Initial residual = 0.00669777, Final residual = 0.000655247, No Iterations 4
ExecutionTime = 24.12 s  ClockTime = 26 s

Time = 18

smoothSolver:  Solving for Ux, Initial residual = 0.000473858, Final residual = 4.35556e-05, No Iterations 13
smoothSolver:  Solving for Uy, Initial residual = 0.020728, Final residual = 0.00188922, No Iterations 13
smoothSolver:  Solving for Uz, Initial residual = 0.0417491, Final residual = 0.00386277, No Iterations 13
GAMG:  Solving for p, Initial residual = 0.00811913, Final residual = 4.49498e-05, No Iterations 5
time step continuity errors : sum local = 7.44772e-06, global = 5.86559e-07, cumulative = 4.9054e-05
smoothSolver:  Solving for omega, Initial residual = 2.52953e-05, Final residual = 1.73639e-06, No Iterations 4
smoothSolver:  Solving for k, Initial residual = 0.0057496, Final residual = 0.000563092, No Iterations 4
ExecutionTime = 25.4 s  ClockTime = 27 s

Time = 19

smoothSolver:  Solving for Ux, Initial residual = 0.000442331, Final residual = 3.98525e-05, No Iterations 13
smoothSolver:  Solving for Uy, Initial residual = 0.0200895, Final residual = 0.00184542, No Iterations 13
smoothSolver:  Solving for Uz, Initial residual = 0.0414711, Final residual = 0.0038727, No Iterations 13
GAMG:  Solving for p, Initial residual = 0.00790745, Final residual = 4.63823e-05, No Iterations 5
time step continuity errors : sum local = 7.66569e-06, global = 3.31875e-07, cumulative = 4.93859e-05
smoothSolver:  Solving for omega, Initial residual = 2.37909e-05, Final residual = 1.67489e-06, No Iterations 4
smoothSolver:  Solving for k, Initial residual = 0.00498725, Final residual = 0.000489613, No Iterations 4
ExecutionTime = 26.66 s  ClockTime = 28 s

Time = 20

smoothSolver:  Solving for Ux, Initial residual = 0.000415859, Final residual = 3.70886e-05, No Iterations 13
smoothSolver:  Solving for Uy, Initial residual = 0.0200774, Final residual = 0.00183897, No Iterations 13
smoothSolver:  Solving for Uz, Initial residual = 0.0417601, Final residual = 0.00390003, No Iterations 13
GAMG:  Solving for p, Initial residual = 0.0077687, Final residual = 4.84691e-05, No Iterations 5
time step continuity errors : sum local = 7.94749e-06, global = 1.48415e-07, cumulative = 4.95343e-05
smoothSolver:  Solving for omega, Initial residual = 2.20908e-05, Final residual = 1.60977e-06, No Iterations 4
smoothSolver:  Solving for k, Initial residual = 0.00436766, Final residual = 0.00043047, No Iterations 4
ExecutionTime = 27.94 s  ClockTime = 30 s

Time = 21

smoothSolver:  Solving for Ux, Initial residual = 0.000394952, Final residual = 3.49555e-05, No Iterations 13
smoothSolver:  Solving for Uy, Initial residual = 0.0207948, Final residual = 0.00188965, No Iterations 13
smoothSolver:  Solving for Uz, Initial residual = 0.0426494, Final residual = 0.0039547, No Iterations 13
GAMG:  Solving for p, Initial residual = 0.00772029, Final residual = 5.12517e-05, No Iterations 5
time step continuity errors : sum local = 8.29989e-06, global = 5.01859e-08, cumulative = 4.95845e-05
smoothSolver:  Solving for omega, Initial residual = 2.05778e-05, Final residual = 1.54706e-06, No Iterations 4
smoothSolver:  Solving for k, Initial residual = 0.00385221, Final residual = 0.00038149, No Iterations 4
ExecutionTime = 29.66 s  ClockTime = 31 s

Time = 22

smoothSolver:  Solving for Ux, Initial residual = 0.000381206, Final residual = 3.35379e-05, No Iterations 13
smoothSolver:  Solving for Uy, Initial residual = 0.0224693, Final residual = 0.00201791, No Iterations 13
smoothSolver:  Solving for Uz, Initial residual = 0.0436673, Final residual = 0.00400558, No Iterations 13
GAMG:  Solving for p, Initial residual = 0.00771708, Final residual = 5.41303e-05, No Iterations 5
time step continuity errors : sum local = 8.62725e-06, global = 1.77699e-08, cumulative = 4.96023e-05
smoothSolver:  Solving for omega, Initial residual = 1.92696e-05, Final residual = 1.48768e-06, No Iterations 4
smoothSolver:  Solving for k, Initial residual = 0.00341982, Final residual = 0.000341491, No Iterations 4
ExecutionTime = 31.05 s  ClockTime = 33 s

Time = 23

smoothSolver:  Solving for Ux, Initial residual = 0.00037118, Final residual = 3.25087e-05, No Iterations 13
smoothSolver:  Solving for Uy, Initial residual = 0.026371, Final residual = 0.00233688, No Iterations 13
smoothSolver:  Solving for Uz, Initial residual = 0.0456977, Final residual = 0.00414501, No Iterations 13
GAMG:  Solving for p, Initial residual = 0.00774466, Final residual = 5.61413e-05, No Iterations 5
time step continuity errors : sum local = 8.7772e-06, global = 1.7269e-08, cumulative = 4.96196e-05
smoothSolver:  Solving for omega, Initial residual = 1.8269e-05, Final residual = 1.43342e-06, No Iterations 4
smoothSolver:  Solving for k, Initial residual = 0.00305497, Final residual = 0.000192035, No Iterations 5
ExecutionTime = 32.34 s  ClockTime = 34 s

Time = 24

smoothSolver:  Solving for Ux, Initial residual = 0.000362444, Final residual = 3.16119e-05, No Iterations 13
smoothSolver:  Solving for Uy, Initial residual = 0.0368492, Final residual = 0.00322383, No Iterations 13
smoothSolver:  Solving for Uz, Initial residual = 0.0473491, Final residual = 0.00424996, No Iterations 13
GAMG:  Solving for p, Initial residual = 0.00773863, Final residual = 5.66219e-05, No Iterations 5
time step continuity errors : sum local = 8.65871e-06, global = 2.36864e-08, cumulative = 4.96432e-05
smoothSolver:  Solving for omega, Initial residual = 1.74084e-05, Final residual = 1.38567e-06, No Iterations 4
smoothSolver:  Solving for k, Initial residual = 0.00273468, Final residual = 0.000172513, No Iterations 5
ExecutionTime = 33.86 s  ClockTime = 36 s

Time = 25

smoothSolver:  Solving for Ux, Initial residual = 0.00035275, Final residual = 3.05933e-05, No Iterations 13
smoothSolver:  Solving for Uy, Initial residual = 0.0345253, Final residual = 0.00299053, No Iterations 13
smoothSolver:  Solving for Uz, Initial residual = 0.0385941, Final residual = 0.0034447, No Iterations 13
GAMG:  Solving for p, Initial residual = 0.00776045, Final residual = 5.72258e-05, No Iterations 5
time step continuity errors : sum local = 8.53891e-06, global = 2.92523e-08, cumulative = 4.96725e-05
smoothSolver:  Solving for omega, Initial residual = 1.65979e-05, Final residual = 1.34108e-06, No Iterations 4
smoothSolver:  Solving for k, Initial residual = 0.00246069, Final residual = 0.000155728, No Iterations 5
ExecutionTime = 35.33 s  ClockTime = 37 s

Time = 26

smoothSolver:  Solving for Ux, Initial residual = 0.000342509, Final residual = 2.95434e-05, No Iterations 13
smoothSolver:  Solving for Uy, Initial residual = 0.0183072, Final residual = 0.00183019, No Iterations 12
smoothSolver:  Solving for Uz, Initial residual = 0.0300057, Final residual = 0.00267024, No Iterations 13
GAMG:  Solving for p, Initial residual = 0.00780287, Final residual = 5.81377e-05, No Iterations 5
time step continuity errors : sum local = 8.45079e-06, global = 3.18482e-08, cumulative = 4.97043e-05
smoothSolver:  Solving for omega, Initial residual = 1.58101e-05, Final residual = 1.29906e-06, No Iterations 4
smoothSolver:  Solving for k, Initial residual = 0.00223163, Final residual = 0.000141358, No Iterations 5
ExecutionTime = 36.74 s  ClockTime = 39 s

Time = 27

smoothSolver:  Solving for Ux, Initial residual = 0.000333851, Final residual = 3.31724e-05, No Iterations 12
smoothSolver:  Solving for Uy, Initial residual = 0.0111158, Final residual = 0.000957156, No Iterations 13
smoothSolver:  Solving for Uz, Initial residual = 0.0228566, Final residual = 0.00203737, No Iterations 13
GAMG:  Solving for p, Initial residual = 0.00791441, Final residual = 5.90162e-05, No Iterations 5
time step continuity errors : sum local = 8.35515e-06, global = 6.54855e-08, cumulative = 4.97698e-05
smoothSolver:  Solving for omega, Initial residual = 1.47165e-05, Final residual = 1.25862e-06, No Iterations 4
smoothSolver:  Solving for k, Initial residual = 0.0020433, Final residual = 0.00012933, No Iterations 5
ExecutionTime = 38.09 s  ClockTime = 40 s

Time = 28

smoothSolver:  Solving for Ux, Initial residual = 0.000326521, Final residual = 3.2057e-05, No Iterations 12
smoothSolver:  Solving for Uy, Initial residual = 0.00743657, Final residual = 0.000642431, No Iterations 13
smoothSolver:  Solving for Uz, Initial residual = 0.0175182, Final residual = 0.00156932, No Iterations 13
GAMG:  Solving for p, Initial residual = 0.00804637, Final residual = 6.0349e-05, No Iterations 5
time step continuity errors : sum local = 8.33281e-06, global = 7.11496e-08, cumulative = 4.9841e-05
smoothSolver:  Solving for omega, Initial residual = 1.37531e-05, Final residual = 1.21948e-06, No Iterations 4
smoothSolver:  Solving for k, Initial residual = 0.00188793, Final residual = 0.000119174, No Iterations 5
ExecutionTime = 39.44 s  ClockTime = 41 s

Time = 29

smoothSolver:  Solving for Ux, Initial residual = 0.000322766, Final residual = 3.13554e-05, No Iterations 12
smoothSolver:  Solving for Uy, Initial residual = 0.00533108, Final residual = 0.000462808, No Iterations 13
smoothSolver:  Solving for Uz, Initial residual = 0.0136249, Final residual = 0.00122913, No Iterations 13
GAMG:  Solving for p, Initial residual = 0.00820647, Final residual = 6.04009e-05, No Iterations 5
time step continuity errors : sum local = 8.15517e-06, global = 7.08439e-08, cumulative = 4.99118e-05
smoothSolver:  Solving for omega, Initial residual = 1.30239e-05, Final residual = 1.18295e-06, No Iterations 4
smoothSolver:  Solving for k, Initial residual = 0.00176154, Final residual = 0.000110459, No Iterations 5
ExecutionTime = 40.76 s  ClockTime = 43 s

Time = 30

smoothSolver:  Solving for Ux, Initial residual = 0.000322542, Final residual = 3.10756e-05, No Iterations 12
smoothSolver:  Solving for Uy, Initial residual = 0.00403785, Final residual = 0.000351911, No Iterations 13
smoothSolver:  Solving for Uz, Initial residual = 0.0109045, Final residual = 0.00098657, No Iterations 13
GAMG:  Solving for p, Initial residual = 0.00836561, Final residual = 5.96288e-05, No Iterations 5
time step continuity errors : sum local = 7.91304e-06, global = 8.78849e-08, cumulative = 4.99997e-05
smoothSolver:  Solving for omega, Initial residual = 1.23526e-05, Final residual = 1.14613e-06, No Iterations 4
smoothSolver:  Solving for k, Initial residual = 0.00166112, Final residual = 0.000103159, No Iterations 5
ExecutionTime = 41.97 s  ClockTime = 44 s

Time = 31

smoothSolver:  Solving for Ux, Initial residual = 0.000325498, Final residual = 3.12903e-05, No Iterations 12
smoothSolver:  Solving for Uy, Initial residual = 0.0031704, Final residual = 0.000279188, No Iterations 13
smoothSolver:  Solving for Uz, Initial residual = 0.00895199, Final residual = 0.000811656, No Iterations 13
GAMG:  Solving for p, Initial residual = 0.00847049, Final residual = 5.90051e-05, No Iterations 5
time step continuity errors : sum local = 7.74376e-06, global = 1.11694e-07, cumulative = 5.01114e-05
smoothSolver:  Solving for omega, Initial residual = 1.1735e-05, Final residual = 1.11159e-06, No Iterations 4
smoothSolver:  Solving for k, Initial residual = 0.00158964, Final residual = 0.000157841, No Iterations 4
ExecutionTime = 43.28 s  ClockTime = 45 s

Time = 32

smoothSolver:  Solving for Ux, Initial residual = 0.000330164, Final residual = 3.18838e-05, No Iterations 12
smoothSolver:  Solving for Uy, Initial residual = 0.00257078, Final residual = 0.000227931, No Iterations 13
smoothSolver:  Solving for Uz, Initial residual = 0.00748851, Final residual = 0.000678012, No Iterations 13
GAMG:  Solving for p, Initial residual = 0.0085774, Final residual = 5.93461e-05, No Iterations 5
time step continuity errors : sum local = 7.74989e-06, global = 1.52958e-07, cumulative = 5.02644e-05
smoothSolver:  Solving for omega, Initial residual = 1.12974e-05, Final residual = 1.0783e-06, No Iterations 4
smoothSolver:  Solving for k, Initial residual = 0.0015416, Final residual = 0.000151584, No Iterations 4
ExecutionTime = 44.63 s  ClockTime = 46 s

Time = 33

smoothSolver:  Solving for Ux, Initial residual = 0.000335974, Final residual = 3.25782e-05, No Iterations 12
smoothSolver:  Solving for Uy, Initial residual = 0.00212969, Final residual = 0.000189132, No Iterations 13
smoothSolver:  Solving for Uz, Initial residual = 0.00636122, Final residual = 0.000571572, No Iterations 13
GAMG:  Solving for p, Initial residual = 0.00867624, Final residual = 5.82559e-05, No Iterations 5
time step continuity errors : sum local = 7.61443e-06, global = 2.0348e-07, cumulative = 5.04678e-05
smoothSolver:  Solving for omega, Initial residual = 1.08978e-05, Final residual = 1.04699e-06, No Iterations 4
smoothSolver:  Solving for k, Initial residual = 0.00152017, Final residual = 0.000147073, No Iterations 4
ExecutionTime = 45.86 s  ClockTime = 48 s

Time = 34

smoothSolver:  Solving for Ux, Initial residual = 0.000341585, Final residual = 3.3296e-05, No Iterations 12
smoothSolver:  Solving for Uy, Initial residual = 0.00181653, Final residual = 0.000159331, No Iterations 13
smoothSolver:  Solving for Uz, Initial residual = 0.00549405, Final residual = 0.000485481, No Iterations 13
GAMG:  Solving for p, Initial residual = 0.00879956, Final residual = 5.78725e-05, No Iterations 5
time step continuity errors : sum local = 7.60994e-06, global = 2.5563e-07, cumulative = 5.07235e-05
smoothSolver:  Solving for omega, Initial residual = 1.04912e-05, Final residual = 1.01674e-06, No Iterations 4
smoothSolver:  Solving for k, Initial residual = 0.0015105, Final residual = 0.000144023, No Iterations 4
ExecutionTime = 47.11 s  ClockTime = 49 s

Time = 35

smoothSolver:  Solving for Ux, Initial residual = 0.000349528, Final residual = 3.38584e-05, No Iterations 12
smoothSolver:  Solving for Uy, Initial residual = 0.00159761, Final residual = 0.000158931, No Iterations 12
smoothSolver:  Solving for Uz, Initial residual = 0.00488141, Final residual = 0.000487235, No Iterations 12
GAMG:  Solving for p, Initial residual = 0.00894246, Final residual = 6.32904e-05, No Iterations 5
time step continuity errors : sum local = 8.40916e-06, global = 3.04028e-07, cumulative = 5.10275e-05
smoothSolver:  Solving for omega, Initial residual = 1.02781e-05, Final residual = 9.87561e-07, No Iterations 4
smoothSolver:  Solving for k, Initial residual = 0.00152522, Final residual = 0.000142778, No Iterations 4
ExecutionTime = 48.29 s  ClockTime = 50 s

Time = 36

smoothSolver:  Solving for Ux, Initial residual = 0.000361242, Final residual = 3.44483e-05, No Iterations 12
smoothSolver:  Solving for Uy, Initial residual = 0.00147207, Final residual = 0.000141473, No Iterations 12
smoothSolver:  Solving for Uz, Initial residual = 0.00451373, Final residual = 0.000434328, No Iterations 12
GAMG:  Solving for p, Initial residual = 0.00922493, Final residual = 7.57987e-05, No Iterations 5
time step continuity errors : sum local = 1.02094e-05, global = 3.45784e-07, cumulative = 5.13733e-05
smoothSolver:  Solving for omega, Initial residual = 1.00504e-05, Final residual = 9.61416e-07, No Iterations 4
smoothSolver:  Solving for k, Initial residual = 0.00155698, Final residual = 0.000143509, No Iterations 4
ExecutionTime = 49.44 s  ClockTime = 51 s

Time = 37

smoothSolver:  Solving for Ux, Initial residual = 0.000379058, Final residual = 3.54911e-05, No Iterations 12
smoothSolver:  Solving for Uy, Initial residual = 0.00143824, Final residual = 0.00013524, No Iterations 12
smoothSolver:  Solving for Uz, Initial residual = 0.00439642, Final residual = 0.00041228, No Iterations 12
GAMG:  Solving for p, Initial residual = 0.00960521, Final residual = 9.08581e-05, No Iterations 5
time step continuity errors : sum local = 1.24232e-05, global = 3.4894e-07, cumulative = 5.17222e-05
smoothSolver:  Solving for omega, Initial residual = 1.00561e-05, Final residual = 9.36091e-07, No Iterations 4
smoothSolver:  Solving for k, Initial residual = 0.00159394, Final residual = 0.000146042, No Iterations 4
ExecutionTime = 50.64 s  ClockTime = 53 s

Time = 38

smoothSolver:  Solving for Ux, Initial residual = 0.000405054, Final residual = 3.72657e-05, No Iterations 12
smoothSolver:  Solving for Uy, Initial residual = 0.00151179, Final residual = 0.000142423, No Iterations 12
smoothSolver:  Solving for Uz, Initial residual = 0.00450579, Final residual = 0.000417581, No Iterations 12
GAMG:  Solving for p, Initial residual = 0.00992025, Final residual = 6.07213e-05, No Iterations 6
time step continuity errors : sum local = 8.43002e-06, global = 3.46254e-07, cumulative = 5.20685e-05
smoothSolver:  Solving for omega, Initial residual = 9.99189e-06, Final residual = 9.09292e-07, No Iterations 4
smoothSolver:  Solving for k, Initial residual = 0.00163783, Final residual = 0.00014985, No Iterations 4
ExecutionTime = 51.82 s  ClockTime = 54 s

Time = 39

smoothSolver:  Solving for Ux, Initial residual = 0.000432053, Final residual = 3.98617e-05, No Iterations 12
smoothSolver:  Solving for Uy, Initial residual = 0.00169064, Final residual = 0.000164281, No Iterations 12
smoothSolver:  Solving for Uz, Initial residual = 0.00484847, Final residual = 0.000451151, No Iterations 12
GAMG:  Solving for p, Initial residual = 0.010057, Final residual = 9.92314e-05, No Iterations 5
time step continuity errors : sum local = 1.39824e-05, global = 1.07895e-07, cumulative = 5.21764e-05
smoothSolver:  Solving for omega, Initial residual = 9.83788e-06, Final residual = 8.82268e-07, No Iterations 4
smoothSolver:  Solving for k, Initial residual = 0.00168201, Final residual = 0.00015412, No Iterations 4
ExecutionTime = 52.97 s  ClockTime = 55 s

Time = 40

smoothSolver:  Solving for Ux, Initial residual = 0.000451983, Final residual = 4.21595e-05, No Iterations 12
smoothSolver:  Solving for Uy, Initial residual = 0.00197079, Final residual = 0.000171549, No Iterations 13
smoothSolver:  Solving for Uz, Initial residual = 0.00537764, Final residual = 0.000509209, No Iterations 12
GAMG:  Solving for p, Initial residual = 0.00997053, Final residual = 9.84542e-05, No Iterations 5
time step continuity errors : sum local = 1.40445e-05, global = -5.68288e-08, cumulative = 5.21195e-05
smoothSolver:  Solving for omega, Initial residual = 9.66039e-06, Final residual = 8.53295e-07, No Iterations 4
smoothSolver:  Solving for k, Initial residual = 0.00171527, Final residual = 0.000158303, No Iterations 4
ExecutionTime = 54.12 s  ClockTime = 56 s

Time = 41

smoothSolver:  Solving for Ux, Initial residual = 0.000464201, Final residual = 4.41494e-05, No Iterations 12
smoothSolver:  Solving for Uy, Initial residual = 0.00242728, Final residual = 0.000222085, No Iterations 13
smoothSolver:  Solving for Uz, Initial residual = 0.00622346, Final residual = 0.000613999, No Iterations 12
GAMG:  Solving for p, Initial residual = 0.00985488, Final residual = 9.19596e-05, No Iterations 5
time step continuity errors : sum local = 1.32571e-05, global = -1.84702e-07, cumulative = 5.19348e-05
smoothSolver:  Solving for omega, Initial residual = 9.18566e-06, Final residual = 8.24633e-07, No Iterations 4
smoothSolver:  Solving for k, Initial residual = 0.00173832, Final residual = 0.000162302, No Iterations 4
ExecutionTime = 55.29 s  ClockTime = 57 s

Time = 42

smoothSolver:  Solving for Ux, Initial residual = 0.000465617, Final residual = 4.55859e-05, No Iterations 12
smoothSolver:  Solving for Uy, Initial residual = 0.00317133, Final residual = 0.000308588, No Iterations 13
smoothSolver:  Solving for Uz, Initial residual = 0.00748505, Final residual = 0.000680943, No Iterations 13
GAMG:  Solving for p, Initial residual = 0.00981764, Final residual = 8.40437e-05, No Iterations 5
time step continuity errors : sum local = 1.2192e-05, global = -3.38241e-07, cumulative = 5.15966e-05
smoothSolver:  Solving for omega, Initial residual = 8.82789e-06, Final residual = 7.97766e-07, No Iterations 4
smoothSolver:  Solving for k, Initial residual = 0.00175112, Final residual = 0.00016627, No Iterations 4
ExecutionTime = 56.44 s  ClockTime = 58 s

Time = 43

smoothSolver:  Solving for Ux, Initial residual = 0.000465, Final residual = 4.06399e-05, No Iterations 13
smoothSolver:  Solving for Uy, Initial residual = 0.00457091, Final residual = 0.000411344, No Iterations 14
smoothSolver:  Solving for Uz, Initial residual = 0.0096447, Final residual = 0.000944411, No Iterations 13
GAMG:  Solving for p, Initial residual = 0.00994326, Final residual = 7.48888e-05, No Iterations 5
time step continuity errors : sum local = 1.088e-05, global = -4.7583e-07, cumulative = 5.11208e-05
smoothSolver:  Solving for omega, Initial residual = 8.42039e-06, Final residual = 7.74856e-07, No Iterations 4
smoothSolver:  Solving for k, Initial residual = 0.00175946, Final residual = 0.000170622, No Iterations 4
ExecutionTime = 57.62 s  ClockTime = 60 s

Time = 44

smoothSolver:  Solving for Ux, Initial residual = 0.000461208, Final residual = 4.26606e-05, No Iterations 13
smoothSolver:  Solving for Uy, Initial residual = 0.00763678, Final residual = 0.000720931, No Iterations 14
smoothSolver:  Solving for Uz, Initial residual = 0.013735, Final residual = 0.00126085, No Iterations 14
GAMG:  Solving for p, Initial residual = 0.010016, Final residual = 6.29379e-05, No Iterations 5
time step continuity errors : sum local = 9.13086e-06, global = -5.31724e-07, cumulative = 5.0589e-05
smoothSolver:  Solving for omega, Initial residual = 7.91682e-06, Final residual = 7.54415e-07, No Iterations 4
smoothSolver:  Solving for k, Initial residual = 0.00173881, Final residual = 0.000108199, No Iterations 5
ExecutionTime = 58.8 s  ClockTime = 61 s

Time = 45

smoothSolver:  Solving for Ux, Initial residual = 0.000449829, Final residual = 4.36831e-05, No Iterations 13
smoothSolver:  Solving for Uy, Initial residual = 0.0177678, Final residual = 0.00174713, No Iterations 14
smoothSolver:  Solving for Uz, Initial residual = 0.0222906, Final residual = 0.00216134, No Iterations 14
GAMG:  Solving for p, Initial residual = 0.0100498, Final residual = 9.22429e-05, No Iterations 4
time step continuity errors : sum local = 1.33629e-05, global = -6.41803e-07, cumulative = 4.99472e-05
smoothSolver:  Solving for omega, Initial residual = 7.59276e-06, Final residual = 7.34953e-07, No Iterations 4
smoothSolver:  Solving for k, Initial residual = 0.00168878, Final residual = 0.000110064, No Iterations 5
ExecutionTime = 59.96 s  ClockTime = 62 s

Time = 46

smoothSolver:  Solving for Ux, Initial residual = 0.000429526, Final residual = 3.75506e-05, No Iterations 14
smoothSolver:  Solving for Uy, Initial residual = 0.0359232, Final residual = 0.00356968, No Iterations 14
smoothSolver:  Solving for Uz, Initial residual = 0.046701, Final residual = 0.00464174, No Iterations 14
GAMG:  Solving for p, Initial residual = 0.0101021, Final residual = 9.45144e-05, No Iterations 4
time step continuity errors : sum local = 1.36778e-05, global = -6.58398e-07, cumulative = 4.92888e-05
smoothSolver:  Solving for omega, Initial residual = 7.24912e-06, Final residual = 7.135e-07, No Iterations 4
smoothSolver:  Solving for k, Initial residual = 0.00162121, Final residual = 0.000110782, No Iterations 5
ExecutionTime = 61.11 s  ClockTime = 63 s

Time = 47

smoothSolver:  Solving for Ux, Initial residual = 0.000405256, Final residual = 3.63738e-05, No Iterations 14
smoothSolver:  Solving for Uy, Initial residual = 0.0114607, Final residual = 0.00110818, No Iterations 14
smoothSolver:  Solving for Uz, Initial residual = 0.0382596, Final residual = 0.003743, No Iterations 14
GAMG:  Solving for p, Initial residual = 0.00999765, Final residual = 5.85942e-05, No Iterations 5
time step continuity errors : sum local = 8.45053e-06, global = -1.39741e-07, cumulative = 4.91491e-05
smoothSolver:  Solving for omega, Initial residual = 6.94672e-06, Final residual = 6.91608e-07, No Iterations 4
smoothSolver:  Solving for k, Initial residual = 0.00154466, Final residual = 0.00010941, No Iterations 5
ExecutionTime = 62.32 s  ClockTime = 64 s

Time = 48

smoothSolver:  Solving for Ux, Initial residual = 0.00038981, Final residual = 3.49242e-05, No Iterations 14
smoothSolver:  Solving for Uy, Initial residual = 0.00719534, Final residual = 0.000648303, No Iterations 14
smoothSolver:  Solving for Uz, Initial residual = 0.0233057, Final residual = 0.00214012, No Iterations 14
GAMG:  Solving for p, Initial residual = 0.0096991, Final residual = 5.82284e-05, No Iterations 5
time step continuity errors : sum local = 8.35276e-06, global = 1.66906e-07, cumulative = 4.9316e-05
smoothSolver:  Solving for omega, Initial residual = 6.78851e-06, Final residual = 6.71782e-07, No Iterations 4
smoothSolver:  Solving for k, Initial residual = 0.00146568, Final residual = 0.00010718, No Iterations 5
ExecutionTime = 63.62 s  ClockTime = 66 s

Time = 49

smoothSolver:  Solving for Ux, Initial residual = 0.000383544, Final residual = 3.33291e-05, No Iterations 14
smoothSolver:  Solving for Uy, Initial residual = 0.00573045, Final residual = 0.000543975, No Iterations 13
smoothSolver:  Solving for Uz, Initial residual = 0.0192554, Final residual = 0.00187747, No Iterations 13
GAMG:  Solving for p, Initial residual = 0.00959344, Final residual = 5.72631e-05, No Iterations 5
time step continuity errors : sum local = 8.16182e-06, global = 2.78982e-07, cumulative = 4.9595e-05
smoothSolver:  Solving for omega, Initial residual = 6.61219e-06, Final residual = 6.52308e-07, No Iterations 4
smoothSolver:  Solving for k, Initial residual = 0.0013949, Final residual = 0.000104667, No Iterations 5
ExecutionTime = 64.85 s  ClockTime = 67 s

Time = 50

smoothSolver:  Solving for Ux, Initial residual = 0.000382623, Final residual = 3.63105e-05, No Iterations 13
smoothSolver:  Solving for Uy, Initial residual = 0.00512964, Final residual = 0.00044212, No Iterations 13
smoothSolver:  Solving for Uz, Initial residual = 0.0187514, Final residual = 0.00166473, No Iterations 13
GAMG:  Solving for p, Initial residual = 0.0101362, Final residual = 0.000101065, No Iterations 4
time step continuity errors : sum local = 1.42931e-05, global = 2.40327e-07, cumulative = 4.98353e-05
smoothSolver:  Solving for omega, Initial residual = 6.44141e-06, Final residual = 6.30987e-07, No Iterations 4
smoothSolver:  Solving for k, Initial residual = 0.00133021, Final residual = 0.000101677, No Iterations 5
ExecutionTime = 68.31 s  ClockTime = 73 s

continuityError continuityError1 write:
    local = 1.42931e-05
    global = 2.40327e-07
    cumulative = 2.40327e-07

yPlus yPlus write:
    writing field yPlus
    patch ball y+ : min = 0.087019, max = 1.34591, average = 0.85302
    functionObjects::CourantNo CourantNo writing field: Co
Time = 51

smoothSolver:  Solving for Ux, Initial residual = 0.000380449, Final residual = 3.35908e-05, No Iterations 13
smoothSolver:  Solving for Uy, Initial residual = 0.00488119, Final residual = 0.000455774, No Iterations 12
smoothSolver:  Solving for Uz, Initial residual = 0.0199529, Final residual = 0.00188734, No Iterations 12
GAMG:  Solving for p, Initial residual = 0.0107456, Final residual = 9.65479e-05, No Iterations 4
time step continuity errors : sum local = 1.35342e-05, global = 8.47364e-08, cumulative = 4.992e-05
smoothSolver:  Solving for omega, Initial residual = 6.21284e-06, Final residual = 6.07698e-07, No Iterations 4
smoothSolver:  Solving for k, Initial residual = 0.00126806, Final residual = 9.81386e-05, No Iterations 5
ExecutionTime = 69.9 s  ClockTime = 74 s

Time = 52

smoothSolver:  Solving for Ux, Initial residual = 0.000371016, Final residual = 3.55665e-05, No Iterations 12
smoothSolver:  Solving for Uy, Initial residual = 0.00488197, Final residual = 0.000443005, No Iterations 12
smoothSolver:  Solving for Uz, Initial residual = 0.0225132, Final residual = 0.00202135, No Iterations 12
GAMG:  Solving for p, Initial residual = 0.0110384, Final residual = 8.76187e-05, No Iterations 4
time step continuity errors : sum local = 1.21727e-05, global = -3.62624e-08, cumulative = 4.98838e-05
smoothSolver:  Solving for omega, Initial residual = 5.97104e-06, Final residual = 5.82166e-07, No Iterations 4
smoothSolver:  Solving for k, Initial residual = 0.0012078, Final residual = 9.39296e-05, No Iterations 5
ExecutionTime = 71.48 s  ClockTime = 76 s

Time = 53

smoothSolver:  Solving for Ux, Initial residual = 0.00034953, Final residual = 3.13886e-05, No Iterations 12
smoothSolver:  Solving for Uy, Initial residual = 0.00498204, Final residual = 0.000458895, No Iterations 12
smoothSolver:  Solving for Uz, Initial residual = 0.0253078, Final residual = 0.00225517, No Iterations 12
GAMG:  Solving for p, Initial residual = 0.0110296, Final residual = 7.94652e-05, No Iterations 4
time step continuity errors : sum local = 1.09429e-05, global = -1.04986e-07, cumulative = 4.97788e-05
smoothSolver:  Solving for omega, Initial residual = 5.73143e-06, Final residual = 5.55613e-07, No Iterations 4
smoothSolver:  Solving for k, Initial residual = 0.00114812, Final residual = 8.92186e-05, No Iterations 5
ExecutionTime = 72.63 s  ClockTime = 77 s

Time = 54

smoothSolver:  Solving for Ux, Initial residual = 0.000319923, Final residual = 2.74941e-05, No Iterations 12
smoothSolver:  Solving for Uy, Initial residual = 0.00525785, Final residual = 0.000513656, No Iterations 12
smoothSolver:  Solving for Uz, Initial residual = 0.0264207, Final residual = 0.00246854, No Iterations 12
GAMG:  Solving for p, Initial residual = 0.0111185, Final residual = 7.41557e-05, No Iterations 4
time step continuity errors : sum local = 1.01312e-05, global = -1.85813e-07, cumulative = 4.9593e-05
smoothSolver:  Solving for omega, Initial residual = 5.42797e-06, Final residual = 5.288e-07, No Iterations 4
smoothSolver:  Solving for k, Initial residual = 0.00108865, Final residual = 8.40142e-05, No Iterations 5
ExecutionTime = 73.66 s  ClockTime = 79 s

Time = 55

smoothSolver:  Solving for Ux, Initial residual = 0.000288711, Final residual = 2.45123e-05, No Iterations 12
smoothSolver:  Solving for Uy, Initial residual = 0.00570657, Final residual = 0.000523527, No Iterations 13
smoothSolver:  Solving for Uz, Initial residual = 0.0245989, Final residual = 0.00216763, No Iterations 13
GAMG:  Solving for p, Initial residual = 0.0111397, Final residual = 7.49721e-05, No Iterations 4
time step continuity errors : sum local = 1.01696e-05, global = -2.66407e-07, cumulative = 4.93266e-05
smoothSolver:  Solving for omega, Initial residual = 5.15863e-06, Final residual = 5.03009e-07, No Iterations 4
smoothSolver:  Solving for k, Initial residual = 0.00102905, Final residual = 7.86889e-05, No Iterations 5
ExecutionTime = 74.79 s  ClockTime = 80 s

Time = 56

smoothSolver:  Solving for Ux, Initial residual = 0.000263377, Final residual = 2.61361e-05, No Iterations 11
smoothSolver:  Solving for Uy, Initial residual = 0.00653396, Final residual = 0.000627908, No Iterations 13
smoothSolver:  Solving for Uz, Initial residual = 0.020352, Final residual = 0.00193932, No Iterations 13
GAMG:  Solving for p, Initial residual = 0.0108781, Final residual = 7.86894e-05, No Iterations 4
time step continuity errors : sum local = 1.05995e-05, global = -2.95268e-07, cumulative = 4.90313e-05
smoothSolver:  Solving for omega, Initial residual = 4.92343e-06, Final residual = 4.78548e-07, No Iterations 4
smoothSolver:  Solving for k, Initial residual = 0.000970046, Final residual = 7.34819e-05, No Iterations 5
ExecutionTime = 76.06 s  ClockTime = 81 s

Time = 57

smoothSolver:  Solving for Ux, Initial residual = 0.00024067, Final residual = 2.3872e-05, No Iterations 11
smoothSolver:  Solving for Uy, Initial residual = 0.00794849, Final residual = 0.000753908, No Iterations 13
smoothSolver:  Solving for Uz, Initial residual = 0.0157297, Final residual = 0.00151428, No Iterations 13
GAMG:  Solving for p, Initial residual = 0.0102992, Final residual = 8.19736e-05, No Iterations 4
time step continuity errors : sum local = 1.09577e-05, global = -2.58311e-07, cumulative = 4.8773e-05
smoothSolver:  Solving for omega, Initial residual = 4.70077e-06, Final residual = 4.54976e-07, No Iterations 4
smoothSolver:  Solving for k, Initial residual = 0.000910187, Final residual = 6.83798e-05, No Iterations 5
ExecutionTime = 77.57 s  ClockTime = 83 s

Time = 58

smoothSolver:  Solving for Ux, Initial residual = 0.000219201, Final residual = 1.88429e-05, No Iterations 12
smoothSolver:  Solving for Uy, Initial residual = 0.0106635, Final residual = 0.000958163, No Iterations 13
smoothSolver:  Solving for Uz, Initial residual = 0.0117064, Final residual = 0.00110718, No Iterations 13
GAMG:  Solving for p, Initial residual = 0.00965745, Final residual = 8.36661e-05, No Iterations 4
time step continuity errors : sum local = 1.10735e-05, global = -1.76407e-07, cumulative = 4.85966e-05
smoothSolver:  Solving for omega, Initial residual = 4.47887e-06, Final residual = 4.32655e-07, No Iterations 4
smoothSolver:  Solving for k, Initial residual = 0.000850676, Final residual = 6.35318e-05, No Iterations 5
ExecutionTime = 79.03 s  ClockTime = 84 s

Time = 59

smoothSolver:  Solving for Ux, Initial residual = 0.000201552, Final residual = 1.78298e-05, No Iterations 12
smoothSolver:  Solving for Uy, Initial residual = 0.016904, Final residual = 0.00163247, No Iterations 12
smoothSolver:  Solving for Uz, Initial residual = 0.00882623, Final residual = 0.000795114, No Iterations 13
GAMG:  Solving for p, Initial residual = 0.00919187, Final residual = 8.29934e-05, No Iterations 4
time step continuity errors : sum local = 1.08397e-05, global = -1.30264e-07, cumulative = 4.84663e-05
smoothSolver:  Solving for omega, Initial residual = 4.26234e-06, Final residual = 4.11781e-07, No Iterations 4
smoothSolver:  Solving for k, Initial residual = 0.0007925, Final residual = 5.88259e-05, No Iterations 5
ExecutionTime = 81.14 s  ClockTime = 86 s

Time = 60

smoothSolver:  Solving for Ux, Initial residual = 0.000190274, Final residual = 1.69316e-05, No Iterations 12
smoothSolver:  Solving for Uy, Initial residual = 0.0379472, Final residual = 0.0033607, No Iterations 12
smoothSolver:  Solving for Uz, Initial residual = 0.00689225, Final residual = 0.000671574, No Iterations 12
GAMG:  Solving for p, Initial residual = 0.00902736, Final residual = 8.07993e-05, No Iterations 4
time step continuity errors : sum local = 1.03891e-05, global = -8.83436e-08, cumulative = 4.8378e-05
smoothSolver:  Solving for omega, Initial residual = 4.05679e-06, Final residual = 3.91973e-07, No Iterations 4
smoothSolver:  Solving for k, Initial residual = 0.000737519, Final residual = 5.43234e-05, No Iterations 5
ExecutionTime = 82.72 s  ClockTime = 88 s

Time = 61

smoothSolver:  Solving for Ux, Initial residual = 0.000179382, Final residual = 1.58835e-05, No Iterations 12
smoothSolver:  Solving for Uy, Initial residual = 0.0203991, Final residual = 0.00196001, No Iterations 11
smoothSolver:  Solving for Uz, Initial residual = 0.00566488, Final residual = 0.000513013, No Iterations 12
GAMG:  Solving for p, Initial residual = 0.00898785, Final residual = 7.66057e-05, No Iterations 4
time step continuity errors : sum local = 9.6788e-06, global = -1.03932e-07, cumulative = 4.82741e-05
smoothSolver:  Solving for omega, Initial residual = 3.8681e-06, Final residual = 3.73027e-07, No Iterations 4
smoothSolver:  Solving for k, Initial residual = 0.000689387, Final residual = 5.01781e-05, No Iterations 5
ExecutionTime = 84.57 s  ClockTime = 90 s

Time = 62

smoothSolver:  Solving for Ux, Initial residual = 0.000168761, Final residual = 1.46965e-05, No Iterations 12
smoothSolver:  Solving for Uy, Initial residual = 0.0112071, Final residual = 0.00102493, No Iterations 11
smoothSolver:  Solving for Uz, Initial residual = 0.00475106, Final residual = 0.000474807, No Iterations 11
GAMG:  Solving for p, Initial residual = 0.00894839, Final residual = 7.17739e-05, No Iterations 4
time step continuity errors : sum local = 8.89799e-06, global = -1.14444e-07, cumulative = 4.81596e-05
smoothSolver:  Solving for omega, Initial residual = 3.6918e-06, Final residual = 3.54782e-07, No Iterations 4
smoothSolver:  Solving for k, Initial residual = 0.000647779, Final residual = 4.6558e-05, No Iterations 5
ExecutionTime = 85.92 s  ClockTime = 91 s

Time = 63

smoothSolver:  Solving for Ux, Initial residual = 0.000158518, Final residual = 1.36638e-05, No Iterations 12
smoothSolver:  Solving for Uy, Initial residual = 0.00745644, Final residual = 0.000667776, No Iterations 11
smoothSolver:  Solving for Uz, Initial residual = 0.00405025, Final residual = 0.000388159, No Iterations 11
GAMG:  Solving for p, Initial residual = 0.00880982, Final residual = 6.80718e-05, No Iterations 4
time step continuity errors : sum local = 8.27986e-06, global = -1.29659e-07, cumulative = 4.80299e-05
smoothSolver:  Solving for omega, Initial residual = 3.51688e-06, Final residual = 3.37646e-07, No Iterations 4
smoothSolver:  Solving for k, Initial residual = 0.000611501, Final residual = 4.33743e-05, No Iterations 5
ExecutionTime = 87.04 s  ClockTime = 92 s

Time = 64

smoothSolver:  Solving for Ux, Initial residual = 0.000148529, Final residual = 1.48522e-05, No Iterations 11
smoothSolver:  Solving for Uy, Initial residual = 0.00543383, Final residual = 0.000488633, No Iterations 11
smoothSolver:  Solving for Uz, Initial residual = 0.00342984, Final residual = 0.000324385, No Iterations 11
GAMG:  Solving for p, Initial residual = 0.00857986, Final residual = 6.56227e-05, No Iterations 4
time step continuity errors : sum local = 7.8358e-06, global = -9.65842e-08, cumulative = 4.79334e-05
smoothSolver:  Solving for omega, Initial residual = 3.35576e-06, Final residual = 3.21611e-07, No Iterations 4
smoothSolver:  Solving for k, Initial residual = 0.00057926, Final residual = 4.05116e-05, No Iterations 5
ExecutionTime = 88.18 s  ClockTime = 94 s

Time = 65

smoothSolver:  Solving for Ux, Initial residual = 0.000137671, Final residual = 1.37169e-05, No Iterations 11
smoothSolver:  Solving for Uy, Initial residual = 0.00422008, Final residual = 0.000386195, No Iterations 11
smoothSolver:  Solving for Uz, Initial residual = 0.00291147, Final residual = 0.000275574, No Iterations 11
GAMG:  Solving for p, Initial residual = 0.00822501, Final residual = 6.43461e-05, No Iterations 4
time step continuity errors : sum local = 7.55871e-06, global = -6.58862e-08, cumulative = 4.78675e-05
smoothSolver:  Solving for omega, Initial residual = 3.21308e-06, Final residual = 3.06598e-07, No Iterations 4
smoothSolver:  Solving for k, Initial residual = 0.000550677, Final residual = 3.79827e-05, No Iterations 5
ExecutionTime = 89.34 s  ClockTime = 95 s

Time = 66

smoothSolver:  Solving for Ux, Initial residual = 0.000128079, Final residual = 1.27131e-05, No Iterations 11
smoothSolver:  Solving for Uy, Initial residual = 0.00342398, Final residual = 0.000317875, No Iterations 11
smoothSolver:  Solving for Uz, Initial residual = 0.00246333, Final residual = 0.000235211, No Iterations 11
GAMG:  Solving for p, Initial residual = 0.00782546, Final residual = 6.39485e-05, No Iterations 4
time step continuity errors : sum local = 7.40678e-06, global = 2.43709e-09, cumulative = 4.78699e-05
smoothSolver:  Solving for omega, Initial residual = 3.08461e-06, Final residual = 2.9322e-07, No Iterations 4
smoothSolver:  Solving for k, Initial residual = 0.000524538, Final residual = 3.57978e-05, No Iterations 5
ExecutionTime = 90.57 s  ClockTime = 96 s

Time = 67

smoothSolver:  Solving for Ux, Initial residual = 0.000118436, Final residual = 1.01851e-05, No Iterations 12
smoothSolver:  Solving for Uy, Initial residual = 0.00293912, Final residual = 0.000276733, No Iterations 11
smoothSolver:  Solving for Uz, Initial residual = 0.00210418, Final residual = 0.000202631, No Iterations 11
GAMG:  Solving for p, Initial residual = 0.0073739, Final residual = 6.32769e-05, No Iterations 4
time step continuity errors : sum local = 7.24314e-06, global = 5.21361e-08, cumulative = 4.79221e-05
smoothSolver:  Solving for omega, Initial residual = 2.96775e-06, Final residual = 2.81169e-07, No Iterations 4
smoothSolver:  Solving for k, Initial residual = 0.000500568, Final residual = 3.38739e-05, No Iterations 5
ExecutionTime = 91.68 s  ClockTime = 97 s

Time = 68

smoothSolver:  Solving for Ux, Initial residual = 0.000111429, Final residual = 9.61415e-06, No Iterations 12
smoothSolver:  Solving for Uy, Initial residual = 0.00266249, Final residual = 0.00025276, No Iterations 11
smoothSolver:  Solving for Uz, Initial residual = 0.00181336, Final residual = 0.000177536, No Iterations 11
GAMG:  Solving for p, Initial residual = 0.00692564, Final residual = 6.31552e-05, No Iterations 4
time step continuity errors : sum local = 7.15772e-06, global = 1.26417e-07, cumulative = 4.80485e-05
smoothSolver:  Solving for omega, Initial residual = 2.85715e-06, Final residual = 2.69854e-07, No Iterations 4
smoothSolver:  Solving for k, Initial residual = 0.000479393, Final residual = 3.21667e-05, No Iterations 5
ExecutionTime = 92.83 s  ClockTime = 98 s

Time = 69

smoothSolver:  Solving for Ux, Initial residual = 0.000104871, Final residual = 9.11856e-06, No Iterations 12
smoothSolver:  Solving for Uy, Initial residual = 0.00261487, Final residual = 0.00025211, No Iterations 11
smoothSolver:  Solving for Uz, Initial residual = 0.00160845, Final residual = 0.000137529, No Iterations 12
GAMG:  Solving for p, Initial residual = 0.00651287, Final residual = 6.37436e-05, No Iterations 4
time step continuity errors : sum local = 7.16821e-06, global = 9.78652e-08, cumulative = 4.81463e-05
smoothSolver:  Solving for omega, Initial residual = 2.75909e-06, Final residual = 2.59314e-07, No Iterations 4
smoothSolver:  Solving for k, Initial residual = 0.000460311, Final residual = 3.06369e-05, No Iterations 5
ExecutionTime = 94.07 s  ClockTime = 99 s

Time = 70

smoothSolver:  Solving for Ux, Initial residual = 0.000100708, Final residual = 8.73784e-06, No Iterations 12
smoothSolver:  Solving for Uy, Initial residual = 0.00280549, Final residual = 0.000274997, No Iterations 11
smoothSolver:  Solving for Uz, Initial residual = 0.00146864, Final residual = 0.000128672, No Iterations 12
GAMG:  Solving for p, Initial residual = 0.0061938, Final residual = 3.62958e-05, No Iterations 5
time step continuity errors : sum local = 4.05388e-06, global = 1.23173e-07, cumulative = 4.82695e-05
smoothSolver:  Solving for omega, Initial residual = 2.65286e-06, Final residual = 2.49379e-07, No Iterations 4
smoothSolver:  Solving for k, Initial residual = 0.000441939, Final residual = 2.92595e-05, No Iterations 5
ExecutionTime = 95.27 s  ClockTime = 101 s

Time = 71

smoothSolver:  Solving for Ux, Initial residual = 9.70133e-05, Final residual = 8.54116e-06, No Iterations 12
smoothSolver:  Solving for Uy, Initial residual = 0.00339905, Final residual = 0.00029551, No Iterations 12
smoothSolver:  Solving for Uz, Initial residual = 0.00139701, Final residual = 0.000126615, No Iterations 12
GAMG:  Solving for p, Initial residual = 0.00597661, Final residual = 3.47434e-05, No Iterations 5
time step continuity errors : sum local = 3.85643e-06, global = 5.25972e-09, cumulative = 4.82748e-05
smoothSolver:  Solving for omega, Initial residual = 2.57873e-06, Final residual = 2.40037e-07, No Iterations 4
smoothSolver:  Solving for k, Initial residual = 0.000424263, Final residual = 2.80209e-05, No Iterations 5
ExecutionTime = 96.42 s  ClockTime = 102 s

Time = 72

smoothSolver:  Solving for Ux, Initial residual = 9.45415e-05, Final residual = 8.37534e-06, No Iterations 12
smoothSolver:  Solving for Uy, Initial residual = 0.00466852, Final residual = 0.000419074, No Iterations 12
smoothSolver:  Solving for Uz, Initial residual = 0.00134858, Final residual = 0.000126497, No Iterations 12
GAMG:  Solving for p, Initial residual = 0.00582148, Final residual = 3.49663e-05, No Iterations 5
time step continuity errors : sum local = 3.85501e-06, global = -1.65611e-09, cumulative = 4.82731e-05
smoothSolver:  Solving for omega, Initial residual = 2.50244e-06, Final residual = 2.31248e-07, No Iterations 4
smoothSolver:  Solving for k, Initial residual = 0.000407717, Final residual = 2.69086e-05, No Iterations 5
ExecutionTime = 97.58 s  ClockTime = 103 s

Time = 73

smoothSolver:  Solving for Ux, Initial residual = 9.18599e-05, Final residual = 8.42498e-06, No Iterations 12
smoothSolver:  Solving for Uy, Initial residual = 0.0080212, Final residual = 0.000754791, No Iterations 12
smoothSolver:  Solving for Uz, Initial residual = 0.00132614, Final residual = 0.000129913, No Iterations 12
GAMG:  Solving for p, Initial residual = 0.00568208, Final residual = 3.55293e-05, No Iterations 5
time step continuity errors : sum local = 3.89069e-06, global = -1.00421e-07, cumulative = 4.81727e-05
smoothSolver:  Solving for omega, Initial residual = 2.43825e-06, Final residual = 2.22674e-07, No Iterations 4
smoothSolver:  Solving for k, Initial residual = 0.000392833, Final residual = 2.59396e-05, No Iterations 5
ExecutionTime = 98.72 s  ClockTime = 104 s

Time = 74

smoothSolver:  Solving for Ux, Initial residual = 9.18054e-05, Final residual = 8.60619e-06, No Iterations 12
smoothSolver:  Solving for Uy, Initial residual = 0.0200287, Final residual = 0.00194851, No Iterations 12
smoothSolver:  Solving for Uz, Initial residual = 0.00131973, Final residual = 0.000115192, No Iterations 13
GAMG:  Solving for p, Initial residual = 0.005535, Final residual = 3.69808e-05, No Iterations 5
time step continuity errors : sum local = 4.01997e-06, global = -7.6516e-08, cumulative = 4.80962e-05
smoothSolver:  Solving for omega, Initial residual = 2.37725e-06, Final residual = 2.14448e-07, No Iterations 4
smoothSolver:  Solving for k, Initial residual = 0.000379722, Final residual = 2.51219e-05, No Iterations 5
ExecutionTime = 100.04 s  ClockTime = 106 s

Time = 75

smoothSolver:  Solving for Ux, Initial residual = 9.17497e-05, Final residual = 8.97346e-06, No Iterations 12
smoothSolver:  Solving for Uy, Initial residual = 0.00991991, Final residual = 0.000990557, No Iterations 12
smoothSolver:  Solving for Uz, Initial residual = 0.00131291, Final residual = 0.000117938, No Iterations 13
GAMG:  Solving for p, Initial residual = 0.00541147, Final residual = 3.7245e-05, No Iterations 5
time step continuity errors : sum local = 4.01964e-06, global = -1.64994e-07, cumulative = 4.79312e-05
smoothSolver:  Solving for omega, Initial residual = 2.31949e-06, Final residual = 2.06368e-07, No Iterations 4
smoothSolver:  Solving for k, Initial residual = 0.000369001, Final residual = 2.45003e-05, No Iterations 5
ExecutionTime = 101.24 s  ClockTime = 107 s

Time = 76

smoothSolver:  Solving for Ux, Initial residual = 9.32333e-05, Final residual = 9.27474e-06, No Iterations 12
smoothSolver:  Solving for Uy, Initial residual = 0.00658119, Final residual = 0.000571647, No Iterations 13
smoothSolver:  Solving for Uz, Initial residual = 0.00131874, Final residual = 0.00011983, No Iterations 13
GAMG:  Solving for p, Initial residual = 0.00532697, Final residual = 3.86543e-05, No Iterations 5
time step continuity errors : sum local = 4.13842e-06, global = -1.02422e-07, cumulative = 4.78288e-05
smoothSolver:  Solving for omega, Initial residual = 2.26115e-06, Final residual = 1.98939e-07, No Iterations 4
smoothSolver:  Solving for k, Initial residual = 0.000361688, Final residual = 2.40871e-05, No Iterations 5
ExecutionTime = 102.91 s  ClockTime = 108 s

Time = 77

smoothSolver:  Solving for Ux, Initial residual = 9.40848e-05, Final residual = 8.22559e-06, No Iterations 13
smoothSolver:  Solving for Uy, Initial residual = 0.00556305, Final residual = 0.000485323, No Iterations 13
smoothSolver:  Solving for Uz, Initial residual = 0.00131279, Final residual = 0.00011941, No Iterations 13
GAMG:  Solving for p, Initial residual = 0.00527072, Final residual = 3.744e-05, No Iterations 5
time step continuity errors : sum local = 3.97729e-06, global = -1.80661e-07, cumulative = 4.76481e-05
smoothSolver:  Solving for omega, Initial residual = 2.21577e-06, Final residual = 1.92289e-07, No Iterations 4
smoothSolver:  Solving for k, Initial residual = 0.000355949, Final residual = 2.38718e-05, No Iterations 5
ExecutionTime = 104.23 s  ClockTime = 110 s

Time = 78

smoothSolver:  Solving for Ux, Initial residual = 9.63801e-05, Final residual = 8.43808e-06, No Iterations 13
smoothSolver:  Solving for Uy, Initial residual = 0.00547229, Final residual = 0.000545664, No Iterations 12
smoothSolver:  Solving for Uz, Initial residual = 0.00131137, Final residual = 0.000117034, No Iterations 13
GAMG:  Solving for p, Initial residual = 0.00528563, Final residual = 3.8775e-05, No Iterations 5
time step continuity errors : sum local = 4.08295e-06, global = -8.65711e-08, cumulative = 4.75615e-05
smoothSolver:  Solving for omega, Initial residual = 2.17656e-06, Final residual = 1.86463e-07, No Iterations 4
smoothSolver:  Solving for k, Initial residual = 0.000351639, Final residual = 2.38464e-05, No Iterations 5
ExecutionTime = 105.41 s  ClockTime = 111 s

Time = 79

smoothSolver:  Solving for Ux, Initial residual = 9.81898e-05, Final residual = 8.54105e-06, No Iterations 13
smoothSolver:  Solving for Uy, Initial residual = 0.00608112, Final residual = 0.000600596, No Iterations 12
smoothSolver:  Solving for Uz, Initial residual = 0.00127558, Final residual = 0.000111033, No Iterations 13
GAMG:  Solving for p, Initial residual = 0.00537176, Final residual = 3.85919e-05, No Iterations 5
time step continuity errors : sum local = 4.03024e-06, global = -1.69375e-07, cumulative = 4.73921e-05
smoothSolver:  Solving for omega, Initial residual = 2.14255e-06, Final residual = 1.80828e-07, No Iterations 4
smoothSolver:  Solving for k, Initial residual = 0.000349824, Final residual = 2.40791e-05, No Iterations 5
ExecutionTime = 106.59 s  ClockTime = 112 s

Time = 80

smoothSolver:  Solving for Ux, Initial residual = 0.000101892, Final residual = 1.01762e-05, No Iterations 12
smoothSolver:  Solving for Uy, Initial residual = 0.00770046, Final residual = 0.000738959, No Iterations 12
smoothSolver:  Solving for Uz, Initial residual = 0.00124433, Final residual = 0.000123327, No Iterations 12
GAMG:  Solving for p, Initial residual = 0.00554736, Final residual = 4.23289e-05, No Iterations 5
time step continuity errors : sum local = 4.38211e-06, global = -1.31884e-08, cumulative = 4.7379e-05
smoothSolver:  Solving for omega, Initial residual = 2.10789e-06, Final residual = 1.75254e-07, No Iterations 4
smoothSolver:  Solving for k, Initial residual = 0.000349914, Final residual = 2.45245e-05, No Iterations 5
ExecutionTime = 107.76 s  ClockTime = 113 s

Time = 81

smoothSolver:  Solving for Ux, Initial residual = 0.000104959, Final residual = 1.02401e-05, No Iterations 12
smoothSolver:  Solving for Uy, Initial residual = 0.0108282, Final residual = 0.0010315, No Iterations 12
smoothSolver:  Solving for Uz, Initial residual = 0.0011735, Final residual = 0.000114387, No Iterations 12
GAMG:  Solving for p, Initial residual = 0.00567894, Final residual = 4.34624e-05, No Iterations 5
time step continuity errors : sum local = 4.46843e-06, global = -8.57832e-08, cumulative = 4.72932e-05
smoothSolver:  Solving for omega, Initial residual = 2.074e-06, Final residual = 1.69996e-07, No Iterations 4
smoothSolver:  Solving for k, Initial residual = 0.000351761, Final residual = 2.51298e-05, No Iterations 5
ExecutionTime = 108.93 s  ClockTime = 115 s

Time = 82

smoothSolver:  Solving for Ux, Initial residual = 0.000109135, Final residual = 1.05165e-05, No Iterations 12
smoothSolver:  Solving for Uy, Initial residual = 0.0174377, Final residual = 0.00164255, No Iterations 12
smoothSolver:  Solving for Uz, Initial residual = 0.00111966, Final residual = 0.000108138, No Iterations 12
GAMG:  Solving for p, Initial residual = 0.00573632, Final residual = 4.79594e-05, No Iterations 5
time step continuity errors : sum local = 4.89723e-06, global = 9.14465e-08, cumulative = 4.73846e-05
smoothSolver:  Solving for omega, Initial residual = 2.05034e-06, Final residual = 1.65328e-07, No Iterations 4
smoothSolver:  Solving for k, Initial residual = 0.000356263, Final residual = 2.59341e-05, No Iterations 5
ExecutionTime = 110.3 s  ClockTime = 116 s

Time = 83

smoothSolver:  Solving for Ux, Initial residual = 0.000112706, Final residual = 1.07608e-05, No Iterations 12
smoothSolver:  Solving for Uy, Initial residual = 0.0208033, Final residual = 0.00200058, No Iterations 12
smoothSolver:  Solving for Uz, Initial residual = 0.00103979, Final residual = 0.000100563, No Iterations 12
GAMG:  Solving for p, Initial residual = 0.00579989, Final residual = 4.67169e-05, No Iterations 5
time step continuity errors : sum local = 4.74735e-06, global = -6.02669e-08, cumulative = 4.73244e-05
smoothSolver:  Solving for omega, Initial residual = 2.03347e-06, Final residual = 1.61647e-07, No Iterations 4
smoothSolver:  Solving for k, Initial residual = 0.000365449, Final residual = 2.7029e-05, No Iterations 5
ExecutionTime = 111.77 s  ClockTime = 117 s

Time = 84

smoothSolver:  Solving for Ux, Initial residual = 0.000117386, Final residual = 1.12791e-05, No Iterations 12
smoothSolver:  Solving for Uy, Initial residual = 0.0182146, Final residual = 0.00178312, No Iterations 12
smoothSolver:  Solving for Uz, Initial residual = 0.000998002, Final residual = 9.74029e-05, No Iterations 12
GAMG:  Solving for p, Initial residual = 0.00591816, Final residual = 4.84846e-05, No Iterations 5
time step continuity errors : sum local = 4.9018e-06, global = 9.27743e-08, cumulative = 4.74171e-05
smoothSolver:  Solving for omega, Initial residual = 2.01545e-06, Final residual = 1.59543e-07, No Iterations 4
smoothSolver:  Solving for k, Initial residual = 0.000378321, Final residual = 2.83624e-05, No Iterations 5
ExecutionTime = 112.93 s  ClockTime = 119 s

Time = 85

smoothSolver:  Solving for Ux, Initial residual = 0.000121945, Final residual = 1.18522e-05, No Iterations 12
smoothSolver:  Solving for Uy, Initial residual = 0.0207095, Final residual = 0.00179426, No Iterations 13
smoothSolver:  Solving for Uz, Initial residual = 0.000937705, Final residual = 8.05003e-05, No Iterations 13
GAMG:  Solving for p, Initial residual = 0.00612455, Final residual = 4.62662e-05, No Iterations 5
time step continuity errors : sum local = 4.66233e-06, global = -1.18648e-07, cumulative = 4.72985e-05
smoothSolver:  Solving for omega, Initial residual = 2.00795e-06, Final residual = 1.59359e-07, No Iterations 4
smoothSolver:  Solving for k, Initial residual = 0.000392, Final residual = 2.99298e-05, No Iterations 5
ExecutionTime = 114.09 s  ClockTime = 120 s

Time = 86

smoothSolver:  Solving for Ux, Initial residual = 0.000127338, Final residual = 1.26162e-05, No Iterations 12
smoothSolver:  Solving for Uy, Initial residual = 0.0190817, Final residual = 0.00169214, No Iterations 13
smoothSolver:  Solving for Uz, Initial residual = 0.000913959, Final residual = 8.13846e-05, No Iterations 13
GAMG:  Solving for p, Initial residual = 0.0063875, Final residual = 4.8943e-05, No Iterations 5
time step continuity errors : sum local = 4.91134e-06, global = 1.10146e-07, cumulative = 4.74086e-05
smoothSolver:  Solving for omega, Initial residual = 2.0131e-06, Final residual = 1.61157e-07, No Iterations 4
smoothSolver:  Solving for k, Initial residual = 0.000406784, Final residual = 3.17488e-05, No Iterations 5
ExecutionTime = 115.3 s  ClockTime = 121 s

Time = 87

smoothSolver:  Solving for Ux, Initial residual = 0.000132556, Final residual = 1.14065e-05, No Iterations 13
smoothSolver:  Solving for Uy, Initial residual = 0.0106907, Final residual = 0.000976415, No Iterations 13
smoothSolver:  Solving for Uz, Initial residual = 0.000864296, Final residual = 8.00334e-05, No Iterations 13
GAMG:  Solving for p, Initial residual = 0.00659683, Final residual = 5.16068e-05, No Iterations 5
time step continuity errors : sum local = 5.1702e-06, global = -1.58457e-07, cumulative = 4.72502e-05
smoothSolver:  Solving for omega, Initial residual = 2.04316e-06, Final residual = 1.64683e-07, No Iterations 4
smoothSolver:  Solving for k, Initial residual = 0.000422394, Final residual = 3.38018e-05, No Iterations 5
ExecutionTime = 116.52 s  ClockTime = 122 s

Time = 88

smoothSolver:  Solving for Ux, Initial residual = 0.000138602, Final residual = 1.22583e-05, No Iterations 13
smoothSolver:  Solving for Uy, Initial residual = 0.00677848, Final residual = 0.000632058, No Iterations 13
smoothSolver:  Solving for Uz, Initial residual = 0.000880215, Final residual = 8.31301e-05, No Iterations 13
GAMG:  Solving for p, Initial residual = 0.00686697, Final residual = 5.84966e-05, No Iterations 5
time step continuity errors : sum local = 5.84458e-06, global = 1.62264e-07, cumulative = 4.74124e-05
smoothSolver:  Solving for omega, Initial residual = 2.08805e-06, Final residual = 1.69887e-07, No Iterations 4
smoothSolver:  Solving for k, Initial residual = 0.000436709, Final residual = 3.59889e-05, No Iterations 5
ExecutionTime = 117.76 s  ClockTime = 123 s

Time = 89

smoothSolver:  Solving for Ux, Initial residual = 0.000144605, Final residual = 1.29714e-05, No Iterations 13
smoothSolver:  Solving for Uy, Initial residual = 0.00484678, Final residual = 0.000458278, No Iterations 13
smoothSolver:  Solving for Uz, Initial residual = 0.000861149, Final residual = 8.21974e-05, No Iterations 13
GAMG:  Solving for p, Initial residual = 0.00715742, Final residual = 6.40901e-05, No Iterations 5
time step continuity errors : sum local = 6.40243e-06, global = -1.85965e-07, cumulative = 4.72265e-05
smoothSolver:  Solving for omega, Initial residual = 2.14613e-06, Final residual = 1.76533e-07, No Iterations 4
smoothSolver:  Solving for k, Initial residual = 0.000452323, Final residual = 3.83662e-05, No Iterations 5
ExecutionTime = 118.93 s  ClockTime = 125 s

Time = 90

smoothSolver:  Solving for Ux, Initial residual = 0.000151041, Final residual = 1.40218e-05, No Iterations 13
smoothSolver:  Solving for Uy, Initial residual = 0.00395676, Final residual = 0.00037741, No Iterations 13
smoothSolver:  Solving for Uz, Initial residual = 0.000943905, Final residual = 8.89907e-05, No Iterations 13
GAMG:  Solving for p, Initial residual = 0.00752568, Final residual = 7.30312e-05, No Iterations 5
time step continuity errors : sum local = 7.27399e-06, global = 2.57818e-07, cumulative = 4.74843e-05
smoothSolver:  Solving for omega, Initial residual = 2.20964e-06, Final residual = 1.84443e-07, No Iterations 4
smoothSolver:  Solving for k, Initial residual = 0.000469476, Final residual = 4.09391e-05, No Iterations 5
ExecutionTime = 120.1 s  ClockTime = 126 s

Time = 91

smoothSolver:  Solving for Ux, Initial residual = 0.000161494, Final residual = 1.49011e-05, No Iterations 13
smoothSolver:  Solving for Uy, Initial residual = 0.00353109, Final residual = 0.000336354, No Iterations 13
smoothSolver:  Solving for Uz, Initial residual = 0.000993709, Final residual = 9.33632e-05, No Iterations 13
GAMG:  Solving for p, Initial residual = 0.00787981, Final residual = 7.83313e-05, No Iterations 5
time step continuity errors : sum local = 7.80003e-06, global = -1.95686e-07, cumulative = 4.72886e-05
smoothSolver:  Solving for omega, Initial residual = 2.30985e-06, Final residual = 1.93286e-07, No Iterations 4
smoothSolver:  Solving for k, Initial residual = 0.000492759, Final residual = 4.38355e-05, No Iterations 5
ExecutionTime = 121.26 s  ClockTime = 127 s

Time = 92

smoothSolver:  Solving for Ux, Initial residual = 0.000169926, Final residual = 1.61355e-05, No Iterations 13
smoothSolver:  Solving for Uy, Initial residual = 0.00349329, Final residual = 0.000332672, No Iterations 13
smoothSolver:  Solving for Uz, Initial residual = 0.00115531, Final residual = 0.000107591, No Iterations 13
GAMG:  Solving for p, Initial residual = 0.00827556, Final residual = 5.37573e-05, No Iterations 6
time step continuity errors : sum local = 5.32765e-06, global = 3.9734e-07, cumulative = 4.76859e-05
smoothSolver:  Solving for omega, Initial residual = 2.40327e-06, Final residual = 2.01925e-07, No Iterations 4
smoothSolver:  Solving for k, Initial residual = 0.000522292, Final residual = 4.70118e-05, No Iterations 5
ExecutionTime = 122.47 s  ClockTime = 128 s

Time = 93

smoothSolver:  Solving for Ux, Initial residual = 0.000187017, Final residual = 1.68899e-05, No Iterations 13
smoothSolver:  Solving for Uy, Initial residual = 0.00370953, Final residual = 0.000350744, No Iterations 13
smoothSolver:  Solving for Uz, Initial residual = 0.00131514, Final residual = 0.000122517, No Iterations 13
GAMG:  Solving for p, Initial residual = 0.00862337, Final residual = 5.35121e-05, No Iterations 6
time step continuity errors : sum local = 5.29653e-06, global = -2.532e-07, cumulative = 4.74327e-05
smoothSolver:  Solving for omega, Initial residual = 2.45208e-06, Final residual = 2.08503e-07, No Iterations 4
smoothSolver:  Solving for k, Initial residual = 0.000557108, Final residual = 5.05206e-05, No Iterations 5
ExecutionTime = 123.68 s  ClockTime = 129 s

Time = 94

smoothSolver:  Solving for Ux, Initial residual = 0.000194812, Final residual = 1.80603e-05, No Iterations 13
smoothSolver:  Solving for Uy, Initial residual = 0.00426021, Final residual = 0.000401551, No Iterations 13
smoothSolver:  Solving for Uz, Initial residual = 0.00159766, Final residual = 0.000149604, No Iterations 13
GAMG:  Solving for p, Initial residual = 0.00907745, Final residual = 8.67796e-05, No Iterations 5
time step continuity errors : sum local = 8.50183e-06, global = 1.83995e-07, cumulative = 4.76167e-05
smoothSolver:  Solving for omega, Initial residual = 2.48045e-06, Final residual = 2.12645e-07, No Iterations 4
smoothSolver:  Solving for k, Initial residual = 0.000598725, Final residual = 5.44114e-05, No Iterations 5
ExecutionTime = 124.85 s  ClockTime = 131 s

Time = 95

smoothSolver:  Solving for Ux, Initial residual = 0.000209918, Final residual = 1.86641e-05, No Iterations 13
smoothSolver:  Solving for Uy, Initial residual = 0.00510563, Final residual = 0.000480951, No Iterations 13
smoothSolver:  Solving for Uz, Initial residual = 0.00194716, Final residual = 0.000185586, No Iterations 13
GAMG:  Solving for p, Initial residual = 0.0094166, Final residual = 9.32644e-05, No Iterations 5
time step continuity errors : sum local = 9.08112e-06, global = -5.9763e-07, cumulative = 4.70191e-05
smoothSolver:  Solving for omega, Initial residual = 2.49351e-06, Final residual = 2.14022e-07, No Iterations 4
smoothSolver:  Solving for k, Initial residual = 0.000642233, Final residual = 5.86956e-05, No Iterations 5
ExecutionTime = 126 s  ClockTime = 132 s

Time = 96

smoothSolver:  Solving for Ux, Initial residual = 0.000215842, Final residual = 2.01914e-05, No Iterations 13
smoothSolver:  Solving for Uy, Initial residual = 0.00655072, Final residual = 0.000618529, No Iterations 13
smoothSolver:  Solving for Uz, Initial residual = 0.00250948, Final residual = 0.000240051, No Iterations 13
GAMG:  Solving for p, Initial residual = 0.00979141, Final residual = 9.0268e-05, No Iterations 5
time step continuity errors : sum local = 8.67064e-06, global = 2.50489e-07, cumulative = 4.72696e-05
smoothSolver:  Solving for omega, Initial residual = 2.44492e-06, Final residual = 2.13125e-07, No Iterations 4
smoothSolver:  Solving for k, Initial residual = 0.000683023, Final residual = 6.30198e-05, No Iterations 5
ExecutionTime = 127.17 s  ClockTime = 133 s

Time = 97

[...]
GAMG:  Solving for p, Initial residual = 0.0142401, Final residual = 0.000124433, No Iterations 5
time step continuity errors : sum local = 6.63386e-06, global = 3.30989e-07, cumulative = -9.12316e-05
smoothSolver:  Solving for omega, Initial residual = 5.26873e-07, Final residual = 4.37032e-08, No Iterations 4
smoothSolver:  Solving for k, Initial residual = 9.76027e-05, Final residual = 7.33072e-06, No Iterations 5
ExecutionTime = 1069.61 s  ClockTime = 1146 s

Time = 977

smoothSolver:  Solving for Ux, Initial residual = 0.000171573, Final residual = 1.5372e-05, No Iterations 7
smoothSolver:  Solving for Uy, Initial residual = 0.00405283, Final residual = 0.000350011, No Iterations 6
smoothSolver:  Solving for Uz, Initial residual = 0.0118234, Final residual = 0.000956827, No Iterations 6
GAMG:  Solving for p, Initial residual = 0.0137321, Final residual = 0.000111295, No Iterations 5
time step continuity errors : sum local = 5.97127e-06, global = -3.98948e-07, cumulative = -9.16305e-05
smoothSolver:  Solving for omega, Initial residual = 5.25491e-07, Final residual = 4.29916e-08, No Iterations 4
smoothSolver:  Solving for k, Initial residual = 9.69466e-05, Final residual = 7.11452e-06, No Iterations 5
ExecutionTime = 1070.53 s  ClockTime = 1147 s

Time = 978

smoothSolver:  Solving for Ux, Initial residual = 0.000185615, Final residual = 1.5389e-05, No Iterations 7
smoothSolver:  Solving for Uy, Initial residual = 0.00459315, Final residual = 0.000416961, No Iterations 5
smoothSolver:  Solving for Uz, Initial residual = 0.0130131, Final residual = 0.00126911, No Iterations 5
GAMG:  Solving for p, Initial residual = 0.0135585, Final residual = 0.000107375, No Iterations 5
time step continuity errors : sum local = 5.679e-06, global = 3.61334e-07, cumulative = -9.12692e-05
smoothSolver:  Solving for omega, Initial residual = 5.1679e-07, Final residual = 4.17913e-08, No Iterations 4
smoothSolver:  Solving for k, Initial residual = 9.60349e-05, Final residual = 6.87701e-06, No Iterations 5
ExecutionTime = 1071.42 s  ClockTime = 1148 s

Time = 979

smoothSolver:  Solving for Ux, Initial residual = 0.000205478, Final residual = 1.75869e-05, No Iterations 6
smoothSolver:  Solving for Uy, Initial residual = 0.00513467, Final residual = 0.000416504, No Iterations 5
smoothSolver:  Solving for Uz, Initial residual = 0.0158972, Final residual = 0.00129853, No Iterations 5
GAMG:  Solving for p, Initial residual = 0.0132642, Final residual = 9.46043e-05, No Iterations 5
time step continuity errors : sum local = 5.02522e-06, global = -4.59198e-07, cumulative = -9.17284e-05
smoothSolver:  Solving for omega, Initial residual = 5.08945e-07, Final residual = 4.09071e-08, No Iterations 4
smoothSolver:  Solving for k, Initial residual = 9.45608e-05, Final residual = 6.73347e-06, No Iterations 5
ExecutionTime = 1072.33 s  ClockTime = 1149 s

Time = 980

smoothSolver:  Solving for Ux, Initial residual = 0.000194085, Final residual = 1.7274e-05, No Iterations 6
smoothSolver:  Solving for Uy, Initial residual = 0.00482425, Final residual = 0.00038744, No Iterations 5
smoothSolver:  Solving for Uz, Initial residual = 0.0165385, Final residual = 0.00139837, No Iterations 5
GAMG:  Solving for p, Initial residual = 0.0133449, Final residual = 9.06515e-05, No Iterations 5
time step continuity errors : sum local = 4.78826e-06, global = 3.48254e-07, cumulative = -9.13801e-05
smoothSolver:  Solving for omega, Initial residual = 4.93555e-07, Final residual = 3.96694e-08, No Iterations 4
smoothSolver:  Solving for k, Initial residual = 9.17294e-05, Final residual = 6.53632e-06, No Iterations 5
ExecutionTime = 1073.22 s  ClockTime = 1150 s

Time = 981

smoothSolver:  Solving for Ux, Initial residual = 0.000193284, Final residual = 1.65958e-05, No Iterations 6
smoothSolver:  Solving for Uy, Initial residual = 0.00477753, Final residual = 0.000472826, No Iterations 4
smoothSolver:  Solving for Uz, Initial residual = 0.0177058, Final residual = 0.00144875, No Iterations 5
GAMG:  Solving for p, Initial residual = 0.0129438, Final residual = 8.84927e-05, No Iterations 5
time step continuity errors : sum local = 4.68847e-06, global = -4.07157e-07, cumulative = -9.17873e-05
smoothSolver:  Solving for omega, Initial residual = 4.81868e-07, Final residual = 3.873e-08, No Iterations 4
smoothSolver:  Solving for k, Initial residual = 8.88898e-05, Final residual = 6.3907e-06, No Iterations 5
ExecutionTime = 1074.11 s  ClockTime = 1151 s

Time = 982

smoothSolver:  Solving for Ux, Initial residual = 0.000224112, Final residual = 1.99811e-05, No Iterations 5
smoothSolver:  Solving for Uy, Initial residual = 0.00592391, Final residual = 0.000453064, No Iterations 4
smoothSolver:  Solving for Uz, Initial residual = 0.0211872, Final residual = 0.00201363, No Iterations 4
GAMG:  Solving for p, Initial residual = 0.0125569, Final residual = 8.13897e-05, No Iterations 5
time step continuity errors : sum local = 4.28583e-06, global = 2.69346e-07, cumulative = -9.15179e-05
smoothSolver:  Solving for omega, Initial residual = 4.69591e-07, Final residual = 3.76695e-08, No Iterations 4
smoothSolver:  Solving for k, Initial residual = 8.43588e-05, Final residual = 6.16067e-06, No Iterations 5
ExecutionTime = 1075 s  ClockTime = 1152 s

Time = 983

smoothSolver:  Solving for Ux, Initial residual = 0.000214422, Final residual = 1.94716e-05, No Iterations 5
smoothSolver:  Solving for Uy, Initial residual = 0.00579243, Final residual = 0.000571634, No Iterations 3
smoothSolver:  Solving for Uz, Initial residual = 0.0223164, Final residual = 0.00206643, No Iterations 4
GAMG:  Solving for p, Initial residual = 0.0119224, Final residual = 7.83204e-05, No Iterations 5
time step continuity errors : sum local = 4.13863e-06, global = -3.75785e-07, cumulative = -9.18937e-05
smoothSolver:  Solving for omega, Initial residual = 4.63883e-07, Final residual = 3.69805e-08, No Iterations 4
smoothSolver:  Solving for k, Initial residual = 8.13215e-05, Final residual = 5.99899e-06, No Iterations 5
ExecutionTime = 1075.94 s  ClockTime = 1153 s

Time = 984

smoothSolver:  Solving for Ux, Initial residual = 0.000243239, Final residual = 2.33722e-05, No Iterations 4
smoothSolver:  Solving for Uy, Initial residual = 0.00685883, Final residual = 0.000555928, No Iterations 3
smoothSolver:  Solving for Uz, Initial residual = 0.028165, Final residual = 0.00222217, No Iterations 4
GAMG:  Solving for p, Initial residual = 0.0115101, Final residual = 7.2581e-05, No Iterations 5
time step continuity errors : sum local = 3.81755e-06, global = 2.17453e-07, cumulative = -9.16763e-05
smoothSolver:  Solving for omega, Initial residual = 4.57039e-07, Final residual = 3.61671e-08, No Iterations 4
smoothSolver:  Solving for k, Initial residual = 7.82338e-05, Final residual = 5.75554e-06, No Iterations 5
ExecutionTime = 1076.93 s  ClockTime = 1154 s

Time = 985

smoothSolver:  Solving for Ux, Initial residual = 0.000235964, Final residual = 2.33145e-05, No Iterations 4
smoothSolver:  Solving for Uy, Initial residual = 0.00671221, Final residual = 0.000547258, No Iterations 3
smoothSolver:  Solving for Uz, Initial residual = 0.0298311, Final residual = 0.00297939, No Iterations 3
GAMG:  Solving for p, Initial residual = 0.0112921, Final residual = 7.11535e-05, No Iterations 5
time step continuity errors : sum local = 3.75044e-06, global = -3.42895e-07, cumulative = -9.20192e-05
smoothSolver:  Solving for omega, Initial residual = 4.52242e-07, Final residual = 3.56073e-08, No Iterations 4
smoothSolver:  Solving for k, Initial residual = 7.70074e-05, Final residual = 5.5866e-06, No Iterations 5
ExecutionTime = 1077.87 s  ClockTime = 1155 s

Time = 986

smoothSolver:  Solving for Ux, Initial residual = 0.000224945, Final residual = 1.80325e-05, No Iterations 5
smoothSolver:  Solving for Uy, Initial residual = 0.00661981, Final residual = 0.000526259, No Iterations 3
smoothSolver:  Solving for Uz, Initial residual = 0.0290799, Final residual = 0.00221191, No Iterations 4
GAMG:  Solving for p, Initial residual = 0.0113682, Final residual = 7.10908e-05, No Iterations 5
time step continuity errors : sum local = 3.73792e-06, global = 1.8558e-07, cumulative = -9.18336e-05
smoothSolver:  Solving for omega, Initial residual = 4.48523e-07, Final residual = 3.49661e-08, No Iterations 4
smoothSolver:  Solving for k, Initial residual = 7.6285e-05, Final residual = 5.41429e-06, No Iterations 5
ExecutionTime = 1078.91 s  ClockTime = 1156 s

Time = 987

smoothSolver:  Solving for Ux, Initial residual = 0.000248135, Final residual = 2.32473e-05, No Iterations 4
smoothSolver:  Solving for Uy, Initial residual = 0.00736948, Final residual = 0.000570473, No Iterations 3
smoothSolver:  Solving for Uz, Initial residual = 0.0314565, Final residual = 0.00293655, No Iterations 3
GAMG:  Solving for p, Initial residual = 0.0109572, Final residual = 6.72846e-05, No Iterations 5
time step continuity errors : sum local = 3.54247e-06, global = -2.60959e-07, cumulative = -9.20945e-05
smoothSolver:  Solving for omega, Initial residual = 4.4434e-07, Final residual = 3.4689e-08, No Iterations 4
smoothSolver:  Solving for k, Initial residual = 7.55854e-05, Final residual = 5.29949e-06, No Iterations 5
ExecutionTime = 1079.93 s  ClockTime = 1157 s

Time = 988

smoothSolver:  Solving for Ux, Initial residual = 0.000274314, Final residual = 2.28226e-05, No Iterations 4
smoothSolver:  Solving for Uy, Initial residual = 0.00844311, Final residual = 0.000554418, No Iterations 3
smoothSolver:  Solving for Uz, Initial residual = 0.0315911, Final residual = 0.00264542, No Iterations 3
GAMG:  Solving for p, Initial residual = 0.0108387, Final residual = 6.50688e-05, No Iterations 5
time step continuity errors : sum local = 3.41883e-06, global = 3.30828e-08, cumulative = -9.20614e-05
smoothSolver:  Solving for omega, Initial residual = 4.40966e-07, Final residual = 3.43996e-08, No Iterations 4
smoothSolver:  Solving for k, Initial residual = 7.43966e-05, Final residual = 5.18334e-06, No Iterations 5
ExecutionTime = 1080.91 s  ClockTime = 1158 s

Time = 989

smoothSolver:  Solving for Ux, Initial residual = 0.000330392, Final residual = 3.11963e-05, No Iterations 3
smoothSolver:  Solving for Uy, Initial residual = 0.0099708, Final residual = 0.000980381, No Iterations 2
smoothSolver:  Solving for Uz, Initial residual = 0.034312, Final residual = 0.0024159, No Iterations 3
GAMG:  Solving for p, Initial residual = 0.0104523, Final residual = 6.15161e-05, No Iterations 5
time step continuity errors : sum local = 3.23987e-06, global = -1.7914e-07, cumulative = -9.22406e-05
smoothSolver:  Solving for omega, Initial residual = 4.32587e-07, Final residual = 3.41149e-08, No Iterations 4
smoothSolver:  Solving for k, Initial residual = 7.28938e-05, Final residual = 5.0871e-06, No Iterations 5
ExecutionTime = 1081.79 s  ClockTime = 1159 s

Time = 990

smoothSolver:  Solving for Ux, Initial residual = 0.000372254, Final residual = 3.12216e-05, No Iterations 3
smoothSolver:  Solving for Uy, Initial residual = 0.0134565, Final residual = 0.00113331, No Iterations 2
smoothSolver:  Solving for Uz, Initial residual = 0.0335677, Final residual = 0.00217799, No Iterations 3
GAMG:  Solving for p, Initial residual = 0.0107063, Final residual = 6.18987e-05, No Iterations 5
time step continuity errors : sum local = 3.27676e-06, global = 1.19428e-07, cumulative = -9.21212e-05
smoothSolver:  Solving for omega, Initial residual = 4.29439e-07, Final residual = 3.36921e-08, No Iterations 4
smoothSolver:  Solving for k, Initial residual = 7.12869e-05, Final residual = 4.98534e-06, No Iterations 5
ExecutionTime = 1082.62 s  ClockTime = 1159 s

Time = 991

smoothSolver:  Solving for Ux, Initial residual = 0.000415841, Final residual = 3.27869e-05, No Iterations 3
smoothSolver:  Solving for Uy, Initial residual = 0.0155549, Final residual = 0.0011692, No Iterations 2
smoothSolver:  Solving for Uz, Initial residual = 0.0359556, Final residual = 0.00325686, No Iterations 2
GAMG:  Solving for p, Initial residual = 0.011228, Final residual = 6.46927e-05, No Iterations 5
time step continuity errors : sum local = 3.44232e-06, global = -1.35665e-07, cumulative = -9.22568e-05
smoothSolver:  Solving for omega, Initial residual = 4.24409e-07, Final residual = 3.32059e-08, No Iterations 4
smoothSolver:  Solving for k, Initial residual = 6.96182e-05, Final residual = 4.89556e-06, No Iterations 5
ExecutionTime = 1083.42 s  ClockTime = 1160 s

Time = 992

smoothSolver:  Solving for Ux, Initial residual = 0.000535708, Final residual = 5.21517e-05, No Iterations 2
smoothSolver:  Solving for Uy, Initial residual = 0.0203549, Final residual = 0.0013569, No Iterations 2
smoothSolver:  Solving for Uz, Initial residual = 0.0404006, Final residual = 0.00326386, No Iterations 2
GAMG:  Solving for p, Initial residual = 0.0113701, Final residual = 5.72656e-05, No Iterations 5
time step continuity errors : sum local = 3.04052e-06, global = 1.29472e-09, cumulative = -9.22555e-05
smoothSolver:  Solving for omega, Initial residual = 4.16704e-07, Final residual = 3.28185e-08, No Iterations 4
smoothSolver:  Solving for k, Initial residual = 6.72413e-05, Final residual = 4.7752e-06, No Iterations 5
ExecutionTime = 1084.24 s  ClockTime = 1161 s

Time = 993

smoothSolver:  Solving for Ux, Initial residual = 0.000590255, Final residual = 5.84161e-05, No Iterations 2
smoothSolver:  Solving for Uy, Initial residual = 0.0232354, Final residual = 0.0015977, No Iterations 2
smoothSolver:  Solving for Uz, Initial residual = 0.0414845, Final residual = 0.00346268, No Iterations 2
GAMG:  Solving for p, Initial residual = 0.0121486, Final residual = 6.69717e-05, No Iterations 5
time step continuity errors : sum local = 3.59642e-06, global = -2.25042e-07, cumulative = -9.24806e-05
smoothSolver:  Solving for omega, Initial residual = 4.18072e-07, Final residual = 3.24775e-08, No Iterations 4
smoothSolver:  Solving for k, Initial residual = 6.54626e-05, Final residual = 4.65119e-06, No Iterations 5
ExecutionTime = 1085.05 s  ClockTime = 1162 s

Time = 994

smoothSolver:  Solving for Ux, Initial residual = 0.000681772, Final residual = 3.92795e-05, No Iterations 3
smoothSolver:  Solving for Uy, Initial residual = 0.0279747, Final residual = 0.00192459, No Iterations 2
smoothSolver:  Solving for Uz, Initial residual = 0.0452355, Final residual = 0.00373645, No Iterations 2
GAMG:  Solving for p, Initial residual = 0.0132885, Final residual = 7.43036e-05, No Iterations 5
time step continuity errors : sum local = 4.00365e-06, global = 1.97353e-07, cumulative = -9.22832e-05
smoothSolver:  Solving for omega, Initial residual = 4.26037e-07, Final residual = 3.2234e-08, No Iterations 4
smoothSolver:  Solving for k, Initial residual = 6.46416e-05, Final residual = 4.54626e-06, No Iterations 5
ExecutionTime = 1085.86 s  ClockTime = 1163 s

Time = 995

smoothSolver:  Solving for Ux, Initial residual = 0.000718769, Final residual = 6.60736e-05, No Iterations 2
smoothSolver:  Solving for Uy, Initial residual = 0.0272332, Final residual = 0.00184335, No Iterations 2
smoothSolver:  Solving for Uz, Initial residual = 0.0470061, Final residual = 0.00371951, No Iterations 2
GAMG:  Solving for p, Initial residual = 0.0137823, Final residual = 7.5781e-05, No Iterations 5
time step continuity errors : sum local = 4.14735e-06, global = -7.32272e-08, cumulative = -9.23564e-05
smoothSolver:  Solving for omega, Initial residual = 4.22564e-07, Final residual = 3.21919e-08, No Iterations 4
smoothSolver:  Solving for k, Initial residual = 6.30911e-05, Final residual = 4.41909e-06, No Iterations 5
ExecutionTime = 1086.66 s  ClockTime = 1164 s

Time = 996

smoothSolver:  Solving for Ux, Initial residual = 0.000743254, Final residual = 6.82259e-05, No Iterations 2
smoothSolver:  Solving for Uy, Initial residual = 0.0307377, Final residual = 0.00198414, No Iterations 2
smoothSolver:  Solving for Uz, Initial residual = 0.0458388, Final residual = 0.00359161, No Iterations 2
GAMG:  Solving for p, Initial residual = 0.0145526, Final residual = 8.48409e-05, No Iterations 5
time step continuity errors : sum local = 4.66458e-06, global = 2.38933e-07, cumulative = -9.21175e-05
smoothSolver:  Solving for omega, Initial residual = 4.21995e-07, Final residual = 3.20862e-08, No Iterations 4
smoothSolver:  Solving for k, Initial residual = 6.28845e-05, Final residual = 4.32225e-06, No Iterations 5
ExecutionTime = 1087.46 s  ClockTime = 1164 s

Time = 997

smoothSolver:  Solving for Ux, Initial residual = 0.000952585, Final residual = 7.1551e-05, No Iterations 2
smoothSolver:  Solving for Uy, Initial residual = 0.0337693, Final residual = 0.0018737, No Iterations 2
smoothSolver:  Solving for Uz, Initial residual = 0.0538043, Final residual = 0.00385477, No Iterations 2
GAMG:  Solving for p, Initial residual = 0.0160702, Final residual = 8.78318e-05, No Iterations 5
time step continuity errors : sum local = 4.89405e-06, global = -2.29336e-07, cumulative = -9.23468e-05
smoothSolver:  Solving for omega, Initial residual = 4.22869e-07, Final residual = 3.19335e-08, No Iterations 4
smoothSolver:  Solving for k, Initial residual = 6.33146e-05, Final residual = 4.25426e-06, No Iterations 5
ExecutionTime = 1088.33 s  ClockTime = 1165 s

Time = 998

smoothSolver:  Solving for Ux, Initial residual = 0.000969921, Final residual = 7.9142e-05, No Iterations 2
smoothSolver:  Solving for Uy, Initial residual = 0.0348286, Final residual = 0.00209817, No Iterations 2
smoothSolver:  Solving for Uz, Initial residual = 0.0571735, Final residual = 0.00408714, No Iterations 2
GAMG:  Solving for p, Initial residual = 0.0170172, Final residual = 0.000109511, No Iterations 5
time step continuity errors : sum local = 6.17254e-06, global = 6.02071e-07, cumulative = -9.17448e-05
smoothSolver:  Solving for omega, Initial residual = 4.24067e-07, Final residual = 3.18731e-08, No Iterations 4
smoothSolver:  Solving for k, Initial residual = 6.47194e-05, Final residual = 4.25799e-06, No Iterations 5
ExecutionTime = 1089.21 s  ClockTime = 1166 s

Time = 999

smoothSolver:  Solving for Ux, Initial residual = 0.000844812, Final residual = 7.99689e-05, No Iterations 2
smoothSolver:  Solving for Uy, Initial residual = 0.0289785, Final residual = 0.00211393, No Iterations 2
smoothSolver:  Solving for Uz, Initial residual = 0.0530223, Final residual = 0.00413904, No Iterations 2
GAMG:  Solving for p, Initial residual = 0.0175593, Final residual = 0.000101674, No Iterations 5
time step continuity errors : sum local = 5.89388e-06, global = -4.94428e-07, cumulative = -9.22392e-05
smoothSolver:  Solving for omega, Initial residual = 4.26906e-07, Final residual = 3.1822e-08, No Iterations 4
smoothSolver:  Solving for k, Initial residual = 6.64085e-05, Final residual = 4.29572e-06, No Iterations 5
ExecutionTime = 1090.16 s  ClockTime = 1167 s

Time = 1000

smoothSolver:  Solving for Ux, Initial residual = 0.000676664, Final residual = 4.27013e-05, No Iterations 3
smoothSolver:  Solving for Uy, Initial residual = 0.0229298, Final residual = 0.00171337, No Iterations 2
smoothSolver:  Solving for Uz, Initial residual = 0.0440355, Final residual = 0.00398986, No Iterations 2
GAMG:  Solving for p, Initial residual = 0.0183062, Final residual = 0.000111738, No Iterations 5
time step continuity errors : sum local = 6.49237e-06, global = 6.03437e-07, cumulative = -9.16358e-05
smoothSolver:  Solving for omega, Initial residual = 4.3462e-07, Final residual = 3.19022e-08, No Iterations 4
smoothSolver:  Solving for k, Initial residual = 6.97178e-05, Final residual = 4.42194e-06, No Iterations 5
ExecutionTime = 1092.75 s  ClockTime = 1172 s

continuityError continuityError1 write:
    local = 6.49237e-06
    global = 6.03437e-07
    cumulative = 1.95738e-05

yPlus yPlus write:
    writing field yPlus
    patch ball y+ : min = 0.184867, max = 1.32597, average = 0.790097
    functionObjects::CourantNo CourantNo writing field: Co
End

